
     RDKit          3D

 26 30  0  0  0  0  0  0  0  0999 V2000
  -19.0301   41.6020  -18.7689 C   0  0  0  0  0  0  0  0  0  0  0  0
  -18.2508   40.5271  -19.3045 N   0  0  0  0  0  0  0  0  0  0  0  0
  -18.6479   39.6917  -20.2798 C   0  0  0  0  0  0  0  0  0  0  0  0
  -17.5908   38.8288  -20.4691 C   0  0  0  0  0  0  0  0  0  0  0  0
  -17.5272   37.7229  -21.4317 C   0  0  0  0  0  0  0  0  0  0  0  0
  -16.3675   36.9736  -21.5608 C   0  0  0  0  0  0  0  0  0  0  0  0
  -16.3220   35.9393  -22.4677 C   0  0  0  0  0  0  0  0  0  0  0  0
  -17.4537   35.6974  -23.2149 C   0  0  0  0  0  0  0  0  0  0  0  0
  -17.7546   34.7966  -24.1642 N   0  0  0  0  0  0  0  0  0  0  0  0
  -18.9997   34.9954  -24.5691 N   0  0  0  0  0  0  0  0  0  0  0  0
  -19.5274   36.0204  -23.8966 C   0  0  0  0  0  0  0  0  0  0  0  0
  -21.1641   36.7288  -24.0277 S   0  0  0  0  0  0  0  0  0  0  0  0
  -20.9445   38.4186  -24.6169 C   0  0  0  0  0  0  0  0  0  0  0  0
  -20.7944   39.4647  -23.7427 C   0  0  0  0  0  0  0  0  0  0  0  0
  -20.6292   40.7409  -24.2434 C   0  0  0  0  0  0  0  0  0  0  0  0
  -20.6096   41.0026  -25.6016 C   0  0  0  0  0  0  0  0  0  0  0  0
  -20.4473   42.2540  -26.0662 N   0  0  0  0  0  0  0  0  0  0  0  0
  -20.4300   42.4976  -27.4027 C   0  0  0  0  0  0  0  0  0  0  0  0
  -20.5752   41.4936  -28.3363 C   0  0  0  0  0  0  0  0  0  0  0  0
  -20.7422   40.2051  -27.8443 C   0  0  0  0  0  0  0  0  0  0  0  0
  -20.7617   39.9430  -26.4875 C   0  0  0  0  0  0  0  0  0  0  0  0
  -20.9255   38.6759  -25.9660 C   0  0  0  0  0  0  0  0  0  0  0  0
  -18.5650   36.4539  -23.0567 N   0  0  0  0  0  0  0  0  0  0  0  0
  -18.5964   37.4378  -22.1885 N   0  0  0  0  0  0  0  0  0  0  0  0
  -16.5864   39.1790  -19.5931 C   0  0  0  0  0  0  0  0  0  0  0  0
  -17.0282   40.2197  -18.9002 N   0  0  0  0  0  0  0  0  0  0  0  0
  1  2  1  0
  2  3  1  0
  3  4  2  0
  4  5  1  0
  5  6  1  0
  6  7  2  0
  7  8  1  0
  8  9  2  0
  9 10  1  0
 10 11  2  0
 11 12  1  0
 12 13  1  0
 13 14  2  0
 14 15  1  0
 15 16  2  0
 16 17  1  0
 17 18  2  0
 18 19  1  0
 19 20  2  0
 20 21  1  0
 21 22  2  0
 11 23  1  0
 23 24  1  0
  4 25  1  0
 25 26  2  0
 26  2  1  0
 24  5  2  0
 23  8  1  0
 22 13  1  0
 21 16  1  0
M  END
$$$$
