
     RDKit          3D

  6  6  0  0  0  0  0  0  0  0999 V2000
  -17.3594   33.5684  -21.5847 C   0  0  0  0  0  0  0  0  0  0  0  0
  -18.7863   33.8903  -21.8715 C   0  0  0  0  0  0  0  0  0  0  0  0
  -19.8047   32.9856  -22.1105 C   0  0  0  0  0  0  0  0  0  0  0  0
  -20.9121   33.7021  -22.3189 N   0  0  0  0  0  0  0  0  0  0  0  0
  -20.6614   35.0057  -22.2273 N   0  0  0  0  0  0  0  0  0  0  0  0
  -19.3634   35.1363  -21.9537 C   0  0  0  0  0  0  0  0  0  0  0  0
  1  2  1  0
  2  3  1  0
  3  4  2  0
  4  5  1  0
  5  6  1  0
  6  2  2  0
M  END
$$$$
