
     RDKit          3D

 44 47  0  0  0  0  0  0  0  0999 V2000
  -14.8550   17.4799  -40.2864 C   0  0  0  0  0  0  0  0  0  0  0  0
  -15.8471   17.2038  -39.3222 O   0  0  0  0  0  0  0  0  0  0  0  0
  -15.5363   17.1340  -37.9874 C   0  0  0  0  0  0  0  0  0  0  0  0
  -14.2100   17.2654  -37.5912 C   0  0  0  0  0  0  0  0  0  0  0  0
  -13.9225   17.1914  -36.2433 C   0  0  0  0  0  0  0  0  0  0  0  0
  -12.6243   17.3196  -35.8500 F   0  0  0  0  0  0  0  0  0  0  0  0
  -14.9151   16.9926  -35.2988 C   0  0  0  0  0  0  0  0  0  0  0  0
  -14.5514   16.9207  -33.8635 C   0  0  0  0  0  0  0  0  0  0  0  0
  -14.8613   15.5414  -33.3240 C   0  0  0  0  0  0  0  0  0  0  0  0
  -15.3191   17.9194  -33.0269 C   0  0  0  0  0  0  0  0  0  0  0  0
  -16.2309   16.8661  -35.7396 C   0  0  0  0  0  0  0  0  0  0  0  0
  -16.5446   16.9358  -37.0760 C   0  0  0  0  0  0  0  0  0  0  0  0
  -17.9365   16.7966  -37.5196 C   0  0  0  0  0  0  0  0  0  0  0  0
  -18.4320   15.4898  -37.6520 C   0  0  0  0  0  0  0  0  0  0  0  0
  -19.7177   15.2718  -38.0332 C   0  0  0  0  0  0  0  0  0  0  0  0
  -20.5933   16.3127  -38.3071 C   0  0  0  0  0  0  0  0  0  0  0  0
  -21.9884   16.0069  -38.7193 C   0  0  0  0  0  0  0  0  0  0  0  0
  -22.7365   17.1567  -38.7921 F   0  0  0  0  0  0  0  0  0  0  0  0
  -22.5361   15.1798  -37.7462 F   0  0  0  0  0  0  0  0  0  0  0  0
  -22.0237   15.3069  -39.9255 F   0  0  0  0  0  0  0  0  0  0  0  0
  -20.1148   17.5895  -38.1800 C   0  0  0  0  0  0  0  0  0  0  0  0
  -18.7832   17.8335  -37.7859 C   0  0  0  0  0  0  0  0  0  0  0  0
  -18.3872   19.2242  -37.7153 C   0  0  0  0  0  0  0  0  0  0  0  0
  -18.7593   20.1187  -38.7547 N   0  0  0  0  0  0  0  0  0  0  0  0
  -17.9633   21.1782  -39.2620 C   0  0  0  0  0  0  0  0  0  0  0  0
  -16.6883   21.2714  -39.2947 O   0  0  0  0  0  0  0  0  0  0  0  0
  -18.8463   22.1403  -39.7406 O   0  0  0  0  0  0  0  0  0  0  0  0
  -19.8634   21.3697  -40.3931 C   0  0  2  0  0  0  0  0  0  0  0  0
  -21.0621   22.1750  -40.5790 C   0  0  0  0  0  0  0  0  0  0  0  0
  -21.5468   22.4511  -41.8325 C   0  0  0  0  0  0  0  0  0  0  0  0
  -22.6799   23.2133  -41.9929 C   0  0  0  0  0  0  0  0  0  0  0  0
  -23.1923   23.5030  -43.3540 C   0  0  0  0  0  0  0  0  0  0  0  0
  -23.2386   22.3203  -44.0816 F   0  0  0  0  0  0  0  0  0  0  0  0
  -22.2843   24.3373  -43.9890 F   0  0  0  0  0  0  0  0  0  0  0  0
  -24.4487   24.0666  -43.2880 F   0  0  0  0  0  0  0  0  0  0  0  0
  -23.3601   23.7204  -40.9137 C   0  0  0  0  0  0  0  0  0  0  0  0
  -22.8870   23.4526  -39.6500 C   0  0  0  0  0  0  0  0  0  0  0  0
  -23.6054   23.9899  -38.4570 C   0  0  0  0  0  0  0  0  0  0  0  0
  -23.8257   25.3409  -38.6928 F   0  0  0  0  0  0  0  0  0  0  0  0
  -22.9056   23.7930  -37.2943 F   0  0  0  0  0  0  0  0  0  0  0  0
  -24.8262   23.3893  -38.3287 F   0  0  0  0  0  0  0  0  0  0  0  0
  -21.7394   22.6805  -39.4922 C   0  0  0  0  0  0  0  0  0  0  0  0
  -20.0020   20.1766  -39.5217 C   0  0  2  0  0  0  0  0  0  0  0  0
  -21.1883   20.2264  -38.6039 C   0  0  0  0  0  0  0  0  0  0  0  0
  1  2  1  0
  2  3  1  0
  3  4  2  0
  4  5  1  0
  5  6  1  0
  5  7  2  0
  7  8  1  0
  8  9  1  0
  8 10  1  0
  7 11  1  0
 11 12  2  0
 12 13  1  0
 13 14  2  0
 14 15  1  0
 15 16  2  0
 16 17  1  0
 17 18  1  0
 17 19  1  0
 17 20  1  0
 16 21  1  0
 21 22  2  0
 22 23  1  0
 23 24  1  0
 24 25  1  0
 25 26  2  0
 25 27  1  0
 27 28  1  0
 28 29  1  1
 29 30  2  0
 30 31  1  0
 31 32  1  0
 32 33  1  0
 32 34  1  0
 32 35  1  0
 31 36  2  0
 36 37  1  0
 37 38  1  0
 38 39  1  0
 38 40  1  0
 38 41  1  0
 37 42  2  0
 28 43  1  0
 43 44  1  1
 12  3  1  0
 22 13  1  0
 43 24  1  0
 42 29  1  0
M  END
$$$$
