
     RDKit          3D

 25 27  0  0  0  0  0  0  0  0999 V2000
  -30.2272   16.5724  -29.7975 C   0  0  0  0  0  0  0  0  0  0  0  0
  -29.9783   16.6177  -28.3882 N   0  0  0  0  0  0  0  0  0  0  0  0
  -31.1128   16.7125  -27.5253 C   0  0  0  0  0  0  0  0  0  0  0  0
  -31.6731   15.5448  -27.0624 C   0  0  0  0  0  0  0  0  0  0  0  0
  -32.7814   15.5926  -26.2329 C   0  0  0  0  0  0  0  0  0  0  0  0
  -33.3421   16.8009  -25.8563 C   0  0  0  0  0  0  0  0  0  0  0  0
  -32.7785   17.9882  -26.3221 C   0  0  0  0  0  0  0  0  0  0  0  0
  -31.6617   17.9184  -27.1574 C   0  0  0  0  0  0  0  0  0  0  0  0
  -28.4245   16.5669  -27.6970 S   0  0  0  0  0  6  0  0  0  0  0  0
  -27.4482   15.8672  -28.6603 O   0  0  0  0  0  0  0  0  0  0  0  0
  -28.4659   15.6227  -26.5070 O   0  0  0  0  0  0  0  0  0  0  0  0
  -27.7163   18.0997  -27.3162 C   0  0  0  0  0  0  0  0  0  0  0  0
  -28.2224   19.2856  -27.8901 C   0  0  0  0  0  0  0  0  0  0  0  0
  -27.7033   20.5177  -27.5879 C   0  0  0  0  0  0  0  0  0  0  0  0
  -26.6566   20.6610  -26.7040 C   0  0  0  0  0  0  0  0  0  0  0  0
  -26.1503   19.5213  -26.1361 C   0  0  0  0  0  0  0  0  0  0  0  0
  -26.6780   18.2477  -26.4414 C   0  0  0  0  0  0  0  0  0  0  0  0
  -26.0630   17.0819  -25.8090 C   0  0  0  0  0  0  0  0  0  0  0  0
  -26.6960   16.3437  -24.9999 O   0  0  0  0  0  0  0  0  0  0  0  0
  -24.7239   16.7023  -26.0594 N   0  0  0  0  0  0  0  0  0  0  0  0
  -24.0853   15.6381  -25.3492 C   0  0  0  0  0  0  0  0  0  0  0  0
  -22.9884   15.1049  -25.2828 N   0  0  0  0  0  0  0  0  0  0  0  0
  -22.6046   14.1203  -24.5390 C   0  0  0  0  0  0  0  0  0  0  0  0
  -23.5621   13.6102  -23.7155 C   0  0  0  0  0  0  0  0  0  0  0  0
  -25.0000   14.6462  -24.1074 S   0  0  0  0  0  0  0  0  0  0  0  0
  1  2  1  0
  2  3  1  0
  3  4  2  0
  4  5  1  0
  5  6  2  0
  6  7  1  0
  7  8  2  0
  2  9  1  0
  9 10  2  0
  9 11  2  0
  9 12  1  0
 12 13  2  0
 13 14  1  0
 14 15  2  0
 15 16  1  0
 16 17  2  0
 17 18  1  0
 18 19  2  0
 18 20  1  0
 20 21  1  0
 21 22  2  0
 22 23  1  0
 23 24  2  0
 24 25  1  0
  8  3  1  0
 17 12  1  0
 25 21  1  0
M  END
$$$$
