
     RDKit          3D

 18 19  0  0  0  0  0  0  0  0999 V2000
  -20.5593   32.5349  -22.3446 N   0  0  0  0  0  0  0  0  0  0  0  0
  -19.2395   33.1793  -21.4449 S   0  0  0  0  0  6  0  0  0  0  0  0
  -17.9449   32.5217  -21.7825 O   0  0  0  0  0  0  0  0  0  0  0  0
  -19.5271   33.0253  -19.9879 O   0  0  0  0  0  0  0  0  0  0  0  0
  -19.1824   34.9100  -21.7820 C   0  0  0  0  0  0  0  0  0  0  0  0
  -17.9770   35.5450  -21.9728 C   0  0  0  0  0  0  0  0  0  0  0  0
  -17.9318   36.8982  -22.2364 C   0  0  0  0  0  0  0  0  0  0  0  0
  -19.0721   37.6651  -22.3197 C   0  0  0  0  0  0  0  0  0  0  0  0
  -18.9547   39.0401  -22.5916 N   0  0  0  0  0  0  0  0  0  0  0  0
  -19.4768   39.6954  -23.7765 C   0  0  0  0  0  0  0  0  0  0  0  0
  -19.9209   41.0741  -23.3574 C   0  0  0  0  0  0  0  0  0  0  0  0
  -18.8126   42.0352  -23.1299 C   0  0  0  0  0  0  0  0  0  0  0  0
  -17.6144   41.4911  -22.4358 C   0  0  0  0  0  0  0  0  0  0  0  0
  -18.1376   40.0718  -21.4646 S   0  0  0  0  0  6  0  0  0  0  0  0
  -19.1619   40.5642  -20.4839 O   0  0  0  0  0  0  0  0  0  0  0  0
  -16.9842   39.4005  -20.8146 O   0  0  0  0  0  0  0  0  0  0  0  0
  -20.2701   37.0272  -22.1288 C   0  0  0  0  0  0  0  0  0  0  0  0
  -20.3345   35.6574  -21.8609 C   0  0  0  0  0  0  0  0  0  0  0  0
  1  2  1  0
  2  3  2  0
  2  4  2  0
  2  5  1  0
  5  6  2  0
  6  7  1  0
  7  8  2  0
  8  9  1  0
  9 10  1  0
 10 11  1  0
 11 12  1  0
 12 13  1  0
 13 14  1  0
 14 15  2  0
 14 16  2  0
  8 17  1  0
 17 18  2  0
 18  5  1  0
 14  9  1  0
M  END
$$$$
