
     RDKit          3D

 26 28  0  0  0  0  0  0  0  0999 V2000
  -15.9160   42.6766  -22.6705 C   0  0  0  0  0  0  0  0  0  0  0  0
  -16.5401   41.3265  -22.7022 C   0  0  0  0  0  0  0  0  0  0  0  0
  -16.9619   40.7910  -23.9000 C   0  0  0  0  0  0  0  0  0  0  0  0
  -17.5437   39.5399  -23.9519 C   0  0  0  0  0  0  0  0  0  0  0  0
  -17.7342   38.7641  -22.8265 C   0  0  0  0  0  0  0  0  0  0  0  0
  -18.3496   37.4370  -22.8708 C   0  0  0  0  0  0  0  0  0  0  0  0
  -17.8959   36.2919  -22.2474 C   0  0  0  0  0  0  0  0  0  0  0  0
  -18.7714   35.3038  -22.5608 C   0  0  0  0  0  0  0  0  0  0  0  0
  -18.6817   33.8942  -22.1084 C   0  0  0  0  0  0  0  0  0  0  0  0
  -19.9690   33.4188  -21.9030 F   0  0  0  0  0  0  0  0  0  0  0  0
  -18.1118   33.1092  -23.0751 F   0  0  0  0  0  0  0  0  0  0  0  0
  -17.9260   33.8314  -20.9690 F   0  0  0  0  0  0  0  0  0  0  0  0
  -19.7024   35.8546  -23.3396 N   0  0  0  0  0  0  0  0  0  0  0  0
  -19.4712   37.1417  -23.5422 N   0  0  0  0  0  0  0  0  0  0  0  0
  -20.2235   38.0758  -24.3075 C   0  0  0  0  0  0  0  0  0  0  0  0
  -20.9901   39.0803  -23.7562 C   0  0  0  0  0  0  0  0  0  0  0  0
  -21.7066   39.9668  -24.5640 C   0  0  0  0  0  0  0  0  0  0  0  0
  -21.6654   39.8603  -25.9234 C   0  0  0  0  0  0  0  0  0  0  0  0
  -22.5931   41.0115  -26.8862 S   0  0  0  0  0  6  0  0  0  0  0  0
  -21.5379   42.3040  -27.3214 N   0  0  0  0  0  0  0  0  0  0  0  0
  -23.7705   41.5340  -26.1430 O   0  0  0  0  0  0  0  0  0  0  0  0
  -23.0660   40.3439  -28.1383 O   0  0  0  0  0  0  0  0  0  0  0  0
  -20.9131   38.8736  -26.4891 C   0  0  0  0  0  0  0  0  0  0  0  0
  -20.1955   37.9856  -25.6835 C   0  0  0  0  0  0  0  0  0  0  0  0
  -17.3082   39.3085  -21.6286 C   0  0  0  0  0  0  0  0  0  0  0  0
  -16.7225   40.5655  -21.5680 C   0  0  0  0  0  0  0  0  0  0  0  0
  1  2  1  0
  2  3  2  0
  3  4  1  0
  4  5  2  0
  5  6  1  0
  6  7  2  0
  7  8  1  0
  8  9  1  0
  9 10  1  0
  9 11  1  0
  9 12  1  0
  8 13  2  0
 13 14  1  0
 14 15  1  0
 15 16  2  0
 16 17  1  0
 17 18  2  0
 18 19  1  0
 19 20  1  0
 19 21  2  0
 19 22  2  0
 18 23  1  0
 23 24  2  0
  5 25  1  0
 25 26  2  0
 26  2  1  0
 14  6  1  0
 24 15  1  0
M  END
$$$$
