
     RDKit          3D

 21 22  0  0  0  0  0  0  0  0999 V2000
  -32.9036   16.5151  -25.7475 C   0  0  0  0  0  0  0  0  0  0  0  0
  -31.7748   17.1814  -26.3456 N   0  0  0  0  0  0  0  0  0  0  0  0
  -31.9470   18.5977  -26.3232 C   0  0  0  0  0  0  0  0  0  0  0  0
  -31.1270   19.3402  -27.3468 C   0  0  0  0  0  0  0  0  0  0  0  0
  -29.6845   19.0899  -27.2377 C   0  0  0  0  0  0  0  0  0  0  0  0
  -28.9830   20.2447  -27.5236 C   0  0  0  0  0  0  0  0  0  0  0  0
  -27.5978   20.2866  -27.4936 C   0  0  0  0  0  0  0  0  0  0  0  0
  -26.6929   21.7385  -27.8522 Cl  0  0  0  0  0  0  0  0  0  0  0  0
  -26.8805   19.1524  -27.1710 C   0  0  0  0  0  0  0  0  0  0  0  0
  -25.4909   19.1470  -27.1282 O   0  0  0  0  0  0  0  0  0  0  0  0
  -27.5647   18.0065  -26.8870 C   0  0  0  0  0  0  0  0  0  0  0  0
  -28.9415   17.9754  -26.9197 C   0  0  0  0  0  0  0  0  0  0  0  0
  -29.4705   16.6464  -26.5834 C   0  0  1  0  0  0  0  0  0  0  0  0
  -28.4356   15.6789  -26.1680 C   0  0  0  0  0  0  0  0  0  0  0  0
  -28.0319   15.5424  -24.8582 C   0  0  0  0  0  0  0  0  0  0  0  0
  -27.0625   14.6286  -24.4955 C   0  0  0  0  0  0  0  0  0  0  0  0
  -26.4711   13.8250  -25.4428 C   0  0  0  0  0  0  0  0  0  0  0  0
  -26.8539   13.9368  -26.7684 C   0  0  0  0  0  0  0  0  0  0  0  0
  -27.8224   14.8552  -27.1048 C   0  0  0  0  0  0  0  0  0  0  0  0
  -30.5851   16.7956  -25.5752 C   0  0  0  0  0  0  0  0  0  0  0  0
  -28.6953   16.8143  -26.1787 Cl  0  0  0  0  0  0  0  0  0  0  0  0
  1  2  1  0
  2  3  1  0
  3  4  1  0
  4  5  1  0
  5  6  2  0
  6  7  1  0
  7  8  1  0
  7  9  2  0
  9 10  1  0
  9 11  1  0
 11 12  2  0
 12 13  1  0
 13 14  1  1
 14 15  2  0
 15 16  1  0
 16 17  2  0
 17 18  1  0
 18 19  2  0
 13 20  1  0
 20  2  1  0
 12  5  1  0
 19 14  1  0
M  END
$$$$
