
     RDKit          3D

 23 24  0  0  0  0  0  0  0  0999 V2000
  -17.2612   44.2141  -21.5278 C   0  0  0  0  0  0  0  0  0  0  0  0
  -17.3835   43.3232  -22.5943 O   0  0  0  0  0  0  0  0  0  0  0  0
  -17.6777   41.9745  -22.4283 C   0  0  0  0  0  0  0  0  0  0  0  0
  -17.2815   41.2509  -21.3224 C   0  0  0  0  0  0  0  0  0  0  0  0
  -17.6110   39.8955  -21.2178 C   0  0  0  0  0  0  0  0  0  0  0  0
  -18.3317   39.2575  -22.2066 C   0  0  0  0  0  0  0  0  0  0  0  0
  -18.6383   37.8365  -22.0256 C   0  0  0  0  0  0  0  0  0  0  0  0
  -18.1862   36.9491  -23.1375 C   0  0  0  0  0  0  0  0  0  0  0  0
  -18.4660   35.5455  -22.7695 C   0  0  0  0  0  0  0  0  0  0  0  0
  -19.7234   35.0557  -22.7095 C   0  0  0  0  0  0  0  0  0  0  0  0
  -19.9182   33.7257  -22.3568 C   0  0  0  0  0  0  0  0  0  0  0  0
  -21.1778   33.1520  -22.2740 O   0  0  0  0  0  0  0  0  0  0  0  0
  -22.2949   33.9134  -21.8134 C   0  0  0  0  0  0  0  0  0  0  0  0
  -18.8424   32.8863  -22.0635 C   0  0  0  0  0  0  0  0  0  0  0  0
  -19.0719   31.5487  -21.7107 O   0  0  0  0  0  0  0  0  0  0  0  0
  -19.4025   30.6195  -22.7510 C   0  0  0  0  0  0  0  0  0  0  0  0
  -17.5690   33.4008  -22.1293 C   0  0  0  0  0  0  0  0  0  0  0  0
  -16.4856   32.6190  -21.8513 O   0  0  0  0  0  0  0  0  0  0  0  0
  -16.6539   31.3298  -21.2973 C   0  0  0  0  0  0  0  0  0  0  0  0
  -17.3974   34.7217  -22.4809 C   0  0  0  0  0  0  0  0  0  0  0  0
  -18.7168   39.9826  -23.2930 C   0  0  0  0  0  0  0  0  0  0  0  0
  -18.3969   41.3200  -23.4058 C   0  0  0  0  0  0  0  0  0  0  0  0
  -18.7966   42.0552  -24.5242 O   0  0  0  0  0  0  0  0  0  0  0  0
  1  2  1  0
  2  3  1  0
  3  4  2  0
  4  5  1  0
  5  6  2  0
  6  7  1  0
  7  8  1  0
  8  9  1  0
  9 10  2  0
 10 11  1  0
 11 12  1  0
 12 13  1  0
 11 14  2  0
 14 15  1  0
 15 16  1  0
 14 17  1  0
 17 18  1  0
 18 19  1  0
 17 20  2  0
  6 21  1  0
 21 22  2  0
 22 23  1  0
 22  3  1  0
 20  9  1  0
M  END
$$$$
