
     RDKit          3D

 29 29  0  0  0  0  0  0  0  0999 V2000
  -22.3093   21.6955  -34.1362 C   0  0  0  0  0  0  0  0  0  0  0  0
  -21.8627   20.3944  -33.4901 C   0  0  0  0  0  0  0  0  0  0  0  0
  -22.8178   19.9660  -32.5655 O   0  0  0  0  0  0  0  0  0  0  0  0
  -22.7164   18.8266  -31.8106 C   0  0  0  0  0  0  0  0  0  0  0  0
  -21.6528   17.9668  -31.8777 C   0  0  0  0  0  0  0  0  0  0  0  0
  -21.5642   16.8287  -31.1153 C   0  0  0  0  0  0  0  0  0  0  0  0
  -22.5847   16.5258  -30.2392 C   0  0  0  0  0  0  0  0  0  0  0  0
  -23.6856   17.3900  -30.1519 C   0  0  0  0  0  0  0  0  0  0  0  0
  -23.7623   18.5205  -30.9155 C   0  0  0  0  0  0  0  0  0  0  0  0
  -24.8083   19.3722  -30.8504 O   0  0  0  0  0  0  0  0  0  0  0  0
  -25.9645   19.4559  -30.1207 C   0  0  0  0  0  0  0  0  0  0  0  0
  -25.8529   19.6387  -28.6507 C   0  0  0  0  0  0  0  0  0  0  0  0
  -27.0960   19.7379  -28.0014 N   0  0  0  0  0  0  0  0  0  0  0  0
  -27.9547   18.6244  -27.8770 C   0  0  2  0  0  0  0  0  0  0  0  0
  -28.6503   18.1425  -29.0955 C   0  0  0  0  0  0  0  0  0  0  0  0
  -28.9775   18.9692  -26.8022 C   0  0  0  0  0  0  0  0  0  0  0  0
  -29.9117   17.8641  -26.5849 C   0  0  0  0  0  0  0  0  0  0  0  0
  -29.4614   16.8091  -25.7701 C   0  0  0  0  0  0  0  0  0  0  0  0
  -30.3230   15.7783  -25.4882 C   0  0  0  0  0  0  0  0  0  0  0  0
  -31.6194   15.7497  -25.9828 C   0  0  0  0  0  0  0  0  0  0  0  0
  -32.4894   14.7020  -25.6935 O   0  0  0  0  0  0  0  0  0  0  0  0
  -32.0023   13.6535  -24.8658 C   0  0  0  0  0  0  0  0  0  0  0  0
  -32.0227   16.8018  -26.7776 C   0  0  0  0  0  0  0  0  0  0  0  0
  -33.6705   16.7277  -27.3922 S   0  0  0  0  0  6  0  0  0  0  0  0
  -34.0068   18.1198  -28.3733 N   0  0  0  0  0  0  0  0  0  0  0  0
  -34.6730   16.6010  -26.3079 O   0  0  0  0  0  0  0  0  0  0  0  0
  -33.7984   15.5300  -28.2942 O   0  0  0  0  0  0  0  0  0  0  0  0
  -31.1867   17.8508  -27.0800 C   0  0  0  0  0  0  0  0  0  0  0  0
  -27.9057   17.8161  -28.6100 Cl  0  0  0  0  0  0  0  0  0  0  0  0
  1  2  1  0
  2  3  1  0
  3  4  1  0
  4  5  2  0
  5  6  1  0
  6  7  2  0
  7  8  1  0
  8  9  2  0
  9 10  1  0
 10 11  1  0
 11 12  1  0
 12 13  1  0
 13 14  1  0
 14 15  1  6
 14 16  1  0
 16 17  1  0
 17 18  2  0
 18 19  1  0
 19 20  2  0
 20 21  1  0
 21 22  1  0
 20 23  1  0
 23 24  1  0
 24 25  1  0
 24 26  2  0
 24 27  2  0
 23 28  2  0
  9  4  1  0
 28 17  1  0
M  END
$$$$
