
     RDKit          3D

 31 34  0  0  0  0  0  0  0  0999 V2000
  -11.3175   45.5840  -17.2167 C   0  0  0  0  0  0  0  0  0  0  0  0
  -11.4935   45.4837  -18.6397 O   0  0  0  0  0  0  0  0  0  0  0  0
  -12.6448   44.8385  -19.1416 C   0  0  0  0  0  0  0  0  0  0  0  0
  -12.9541   44.9005  -20.4760 C   0  0  0  0  0  0  0  0  0  0  0  0
  -14.0867   44.2628  -20.9566 C   0  0  0  0  0  0  0  0  0  0  0  0
  -14.9109   43.5620  -20.1029 C   0  0  0  0  0  0  0  0  0  0  0  0
  -16.0919   42.9006  -20.6837 C   0  0  0  0  0  0  0  0  0  0  0  0
  -16.4587   41.6124  -20.3665 C   0  0  0  0  0  0  0  0  0  0  0  0
  -17.6015   41.0636  -20.9606 C   0  0  0  0  0  0  0  0  0  0  0  0
  -17.9861   39.7667  -20.6406 C   0  0  0  0  0  0  0  0  0  0  0  0
  -17.1290   39.0304  -19.6723 C   0  0  0  0  0  0  0  0  0  0  0  0
  -19.0816   39.2185  -21.1886 N   0  0  0  0  0  0  0  0  0  0  0  0
  -19.8239   39.9462  -22.0696 C   0  0  0  0  0  0  0  0  0  0  0  0
  -20.9863   39.3566  -22.6496 N   0  0  0  0  0  0  0  0  0  0  0  0
  -19.4433   41.1943  -22.3704 N   0  0  0  0  0  0  0  0  0  0  0  0
  -18.3502   41.8032  -21.8527 C   0  0  0  0  0  0  0  0  0  0  0  0
  -17.9907   43.0788  -22.1707 N   0  0  0  0  0  0  0  0  0  0  0  0
  -18.8463   43.7411  -23.1089 C   0  0  1  0  0  0  0  0  0  0  0  0
  -19.8857   44.6352  -22.6260 C   0  0  0  0  0  0  0  0  0  0  0  0
  -19.5900   46.1111  -22.6023 C   0  0  0  0  0  0  0  0  0  0  0  0
  -19.1941   46.4724  -24.0445 C   0  0  2  0  0  0  0  0  0  0  0  0
  -20.0399   45.8144  -24.9316 O   0  0  0  0  0  0  0  0  0  0  0  0
  -20.6526   46.6925  -25.8200 C   0  0  0  0  0  0  0  0  0  0  0  0
  -20.2737   48.1054  -25.4180 C   0  0  0  0  0  0  0  0  0  0  0  0
  -20.9545   48.4994  -24.2690 O   0  0  0  0  0  0  0  0  0  0  0  0
  -17.8249   45.8154  -24.1770 C   0  0  0  0  0  0  0  0  0  0  0  0
  -18.0651   44.3399  -24.2391 C   0  0  0  0  0  0  0  0  0  0  0  0
  -16.9019   43.5678  -21.5877 C   0  0  0  0  0  0  0  0  0  0  0  0
  -16.5484   44.7390  -21.8583 O   0  0  0  0  0  0  0  0  0  0  0  0
  -14.5801   43.5148  -18.7746 C   0  0  0  0  0  0  0  0  0  0  0  0
  -13.4580   44.1516  -18.3222 N   0  0  0  0  0  0  0  0  0  0  0  0
  1  2  1  0
  2  3  1  0
  3  4  2  0
  4  5  1  0
  5  6  2  0
  6  7  1  0
  7  8  2  0
  8  9  1  0
  9 10  2  0
 10 11  1  0
 10 12  1  0
 12 13  2  0
 13 14  1  0
 13 15  1  0
 15 16  2  0
 16 17  1  0
 18 17  1  1
 18 19  1  0
 19 20  1  0
 20 21  1  0
 21 22  1  6
 22 23  1  0
 23 24  1  0
 24 25  1  0
 21 26  1  0
 26 27  1  0
 17 28  1  0
 28 29  2  0
  6 30  1  0
 30 31  2  0
 31  3  1  0
 28  7  1  0
 16  9  1  0
 27 18  1  0
M  END
$$$$
