
     RDKit          3D

 23 24  0  0  0  0  0  0  0  0999 V2000
  -14.2436   24.7125  -11.1058 C   0  0  0  0  0  0  0  0  0  0  0  0
  -13.8158   23.5482  -10.4118 N   0  0  0  0  0  0  0  0  0  0  0  0
  -12.6640   22.9892  -10.9200 C   0  0  0  0  0  0  0  0  0  0  0  0
  -11.4013   23.7777  -10.7947 C   0  0  0  0  0  0  0  0  0  0  0  0
  -11.2510   24.9349  -10.2510 C   0  0  0  0  0  0  0  0  0  0  0  0
   -9.9835   25.6599  -10.1602 C   0  0  0  0  0  0  0  0  0  0  0  0
   -9.9106   26.9030   -9.5613 C   0  0  0  0  0  0  0  0  0  0  0  0
   -8.7303   27.5890   -9.4760 C   0  0  0  0  0  0  0  0  0  0  0  0
   -7.5802   27.0354   -9.9970 C   0  0  0  0  0  0  0  0  0  0  0  0
   -7.5897   25.8001  -10.6058 C   0  0  0  0  0  0  0  0  0  0  0  0
   -8.8183   25.1374  -10.6691 C   0  0  0  0  0  0  0  0  0  0  0  0
  -14.8338   22.6789   -9.9275 C   0  0  0  0  0  0  0  0  0  0  0  0
  -15.8780   22.3493  -10.9041 C   0  0  0  0  0  0  0  0  0  0  0  0
  -16.9689   23.2448  -10.9168 C   0  0  0  0  0  0  0  0  0  0  0  0
  -17.9395   23.0597  -11.8652 C   0  0  0  0  0  0  0  0  0  0  0  0
  -17.8936   22.0521  -12.7898 C   0  0  0  0  0  0  0  0  0  0  0  0
  -16.8239   21.1852  -12.7634 C   0  0  0  0  0  0  0  0  0  0  0  0
  -16.7343   20.1370  -13.6591 C   0  0  0  0  0  0  0  0  0  0  0  0
  -15.6889   19.2450  -13.6408 C   0  0  0  0  0  0  0  0  0  0  0  0
  -14.7007   19.4099  -12.6911 C   0  0  0  0  0  0  0  0  0  0  0  0
  -14.7509   20.4399  -11.7808 C   0  0  0  0  0  0  0  0  0  0  0  0
  -15.8043   21.3240  -11.8185 C   0  0  0  0  0  0  0  0  0  0  0  0
  -12.7506   23.8119  -11.0264 Cl  0  0  0  0  0  0  0  0  0  0  0  0
  1  2  1  0
  2  3  1  0
  3  4  1  0
  4  5  2  0
  5  6  1  0
  6  7  2  0
  7  8  1  0
  8  9  2  0
  9 10  1  0
 10 11  2  0
  2 12  1  0
 12 13  1  0
 13 14  2  0
 14 15  1  0
 15 16  2  0
 16 17  1  0
 17 18  2  0
 18 19  1  0
 19 20  2  0
 20 21  1  0
 21 22  2  0
 11  6  1  0
 22 13  1  0
 22 17  1  0
M  END
$$$$
