
     RDKit          3D

 45 50  0  0  0  0  0  0  0  0999 V2000
  -18.0154   20.1001  -36.6233 C   0  0  0  0  0  0  0  0  0  0  0  0
  -19.1632   20.5538  -35.9803 O   0  0  0  0  0  0  0  0  0  0  0  0
  -19.3227   20.0274  -34.7091 C   0  0  0  0  0  0  0  0  0  0  0  0
  -20.7183   20.3466  -34.1820 C   0  0  0  0  0  0  0  0  0  0  0  0
  -20.6281   21.0142  -32.8945 N   0  0  0  0  0  0  0  0  0  0  0  0
  -21.0557   20.2302  -31.8023 C   0  0  0  0  0  0  0  0  0  0  0  0
  -22.4083   20.3187  -31.3335 C   0  0  0  0  0  0  0  0  0  0  0  0
  -23.2906   21.1359  -32.0509 C   0  0  0  0  0  0  0  0  0  0  0  0
  -24.6076   21.2494  -31.6902 C   0  0  0  0  0  0  0  0  0  0  0  0
  -25.0738   20.5320  -30.5825 C   0  0  0  0  0  0  0  0  0  0  0  0
  -26.4499   20.6539  -30.1685 C   0  0  0  0  0  0  0  0  0  0  0  0
  -27.4266   21.5447  -30.3079 C   0  0  0  0  0  0  0  0  0  0  0  0
  -28.6348   21.3256  -29.7635 C   0  0  0  0  0  0  0  0  0  0  0  0
  -29.7411   22.1568  -29.8433 N   0  0  0  0  0  0  0  0  0  0  0  0
  -30.8890   21.8354  -29.2867 C   0  0  0  0  0  0  0  0  0  0  0  0
  -31.1430   20.6647  -28.5710 C   0  0  0  0  0  0  0  0  0  0  0  0
  -30.0706   19.8052  -28.4626 C   0  0  0  0  0  0  0  0  0  0  0  0
  -30.0390   18.6162  -27.8459 O   0  0  0  0  0  0  0  0  0  0  0  0
  -30.9855   17.8224  -27.3488 C   0  0  0  0  0  0  0  0  0  0  0  0
  -31.5524   16.8745  -28.2474 C   0  0  0  0  0  0  0  0  0  0  0  0
  -32.5079   16.0121  -27.8881 C   0  0  0  0  0  0  0  0  0  0  0  0
  -33.0221   15.9766  -26.5875 C   0  0  0  0  0  0  0  0  0  0  0  0
  -34.0361   15.0351  -26.2986 N   0  0  0  0  0  0  0  0  0  0  0  0
  -33.8765   14.0617  -25.2785 C   0  0  0  0  0  0  0  0  0  0  0  0
  -32.7970   13.5102  -24.9919 O   0  0  0  0  0  0  0  0  0  0  0  0
  -35.1090   13.6628  -24.5119 C   0  0  0  0  0  0  0  0  0  0  0  0
  -35.9867   14.7658  -24.0955 C   0  0  0  0  0  0  0  0  0  0  0  0
  -36.9214   15.0996  -24.8989 O   0  0  0  0  0  0  0  0  0  0  0  0
  -35.8489   15.4700  -22.8393 N   0  0  0  0  0  0  0  0  0  0  0  0
  -34.7907   15.0789  -21.9611 C   0  0  0  0  0  0  0  0  0  0  0  0
  -34.7028   15.7213  -20.7093 C   0  0  0  0  0  0  0  0  0  0  0  0
  -33.7259   15.3865  -19.8088 C   0  0  0  0  0  0  0  0  0  0  0  0
  -32.8183   14.4065  -20.1345 C   0  0  0  0  0  0  0  0  0  0  0  0
  -31.8772   14.0786  -19.2230 F   0  0  0  0  0  0  0  0  0  0  0  0
  -32.8724   13.7536  -21.3477 C   0  0  0  0  0  0  0  0  0  0  0  0
  -33.8742   14.1151  -22.2406 C   0  0  0  0  0  0  0  0  0  0  0  0
  -35.8811   12.4815  -25.0576 C   0  0  0  0  0  0  0  0  0  0  0  0
  -35.0125   12.3781  -23.7870 C   0  0  0  0  0  0  0  0  0  0  0  0
  -32.5018   16.8744  -25.6934 C   0  0  0  0  0  0  0  0  0  0  0  0
  -31.5032   17.7657  -26.0919 C   0  0  0  0  0  0  0  0  0  0  0  0
  -31.0296   18.6540  -25.1693 F   0  0  0  0  0  0  0  0  0  0  0  0
  -28.8396   20.1846  -29.0741 C   0  0  0  0  0  0  0  0  0  0  0  0
  -27.2745   19.3487  -29.1685 S   0  0  0  0  0  0  0  0  0  0  0  0
  -24.2205   19.7693  -29.9273 N   0  0  0  0  0  0  0  0  0  0  0  0
  -22.9153   19.6450  -30.2689 C   0  0  0  0  0  0  0  0  0  0  0  0
  1  2  1  0
  2  3  1  0
  3  4  1  0
  4  5  1  0
  5  6  1  0
  6  7  1  0
  7  8  2  0
  8  9  1  0
  9 10  2  0
 10 11  1  0
 11 12  2  0
 12 13  1  0
 13 14  2  0
 14 15  1  0
 15 16  2  0
 16 17  1  0
 17 18  1  0
 18 19  1  0
 19 20  2  0
 20 21  1  0
 21 22  2  0
 22 23  1  0
 23 24  1  0
 24 25  2  0
 24 26  1  0
 26 27  1  0
 27 28  2  0
 27 29  1  0
 29 30  1  0
 30 31  2  0
 31 32  1  0
 32 33  2  0
 33 34  1  0
 33 35  1  0
 35 36  2  0
 26 37  1  0
 37 38  1  0
 22 39  1  0
 39 40  2  0
 40 41  1  0
 17 42  2  0
 42 43  1  0
 10 44  1  0
 44 45  2  0
 45  7  1  0
 43 11  1  0
 42 13  1  0
 40 19  1  0
 38 26  1  0
 36 30  1  0
M  END
$$$$
