
     RDKit          3D

 28 31  0  0  0  0  0  0  0  0999 V2000
  -27.1461   22.9410  -29.8038 O   0  0  0  0  0  0  0  0  0  0  0  0
  -27.0158   21.7226  -30.0527 C   0  0  0  0  0  0  0  0  0  0  0  0
  -26.1554   21.3723  -31.1198 N   0  0  0  0  0  0  0  0  0  0  0  0
  -25.3236   22.3986  -31.7991 C   0  0  0  0  0  0  0  0  0  0  0  0
  -26.2073   23.0041  -32.8450 C   0  0  2  0  0  0  0  0  0  0  0  0
  -26.0413   22.0693  -33.9716 O   0  0  0  0  0  0  0  0  0  0  0  0
  -25.8866   24.3439  -33.3571 C   0  0  0  0  0  0  0  0  0  0  0  0
  -24.8916   24.4598  -34.3307 N   0  0  0  0  0  0  0  0  0  0  0  0
  -25.1388   24.1058  -35.6840 C   0  0  0  0  0  0  0  0  0  0  0  0
  -26.3836   24.8264  -36.1814 C   0  0  0  0  0  0  0  0  0  0  0  0
  -26.3239   26.2563  -35.7661 C   0  0  0  0  0  0  0  0  0  0  0  0
  -27.2999   27.1119  -36.3022 C   0  0  0  0  0  0  0  0  0  0  0  0
  -27.3006   28.4481  -35.9593 C   0  0  0  0  0  0  0  0  0  0  0  0
  -26.3275   28.9097  -35.0869 C   0  0  0  0  0  0  0  0  0  0  0  0
  -25.3802   28.0516  -34.5739 C   0  0  0  0  0  0  0  0  0  0  0  0
  -25.3687   26.7081  -34.9102 C   0  0  0  0  0  0  0  0  0  0  0  0
  -24.3302   25.8473  -34.3289 C   0  0  0  0  0  0  0  0  0  0  0  0
  -27.7348   20.7255  -29.2572 C   0  0  0  0  0  0  0  0  0  0  0  0
  -27.9732   19.4531  -29.7251 C   0  0  0  0  0  0  0  0  0  0  0  0
  -28.6568   18.5375  -28.9260 C   0  0  0  0  0  0  0  0  0  0  0  0
  -29.0555   18.9449  -27.7221 N   0  0  0  0  0  0  0  0  0  0  0  0
  -28.8497   20.1717  -27.2181 C   0  0  0  0  0  0  0  0  0  0  0  0
  -29.3164   20.5096  -25.9070 N   0  0  0  0  0  0  0  0  0  0  0  0
  -28.9932   21.8168  -25.3952 C   0  0  0  0  0  0  0  0  0  0  0  0
  -29.5833   22.1041  -24.0326 C   0  0  0  0  0  0  0  0  0  0  0  0
  -29.9703   23.4874  -24.5694 C   0  0  0  0  0  0  0  0  0  0  0  0
  -29.9127   22.8736  -25.9671 C   0  0  0  0  0  0  0  0  0  0  0  0
  -28.1777   21.0934  -27.9871 C   0  0  0  0  0  0  0  0  0  0  0  0
  1  2  2  0
  2  3  1  0
  3  4  1  0
  4  5  1  0
  5  6  1  6
  5  7  1  0
  7  8  1  0
  8  9  1  0
  9 10  1  0
 10 11  1  0
 11 12  2  0
 12 13  1  0
 13 14  2  0
 14 15  1  0
 15 16  2  0
 16 17  1  0
  2 18  1  0
 18 19  2  0
 19 20  1  0
 20 21  2  0
 21 22  1  0
 22 23  1  0
 23 24  1  0
 24 25  1  0
 25 26  1  0
 26 27  1  0
 22 28  2  0
 17  8  1  0
 28 18  1  0
 16 11  1  0
 27 24  1  0
M  END
$$$$
