
     RDKit          3D

 21 23  0  0  0  0  0  0  0  0999 V2000
    2.4057   18.4118  -14.2833 C   0  0  0  0  0  0  0  0  0  0  0  0
    3.0999   18.0359  -15.3247 C   0  0  0  0  0  0  0  0  0  0  0  0
    2.5819   18.2872  -16.6577 C   0  0  0  0  0  0  0  0  0  0  0  0
    1.4098   17.8880  -16.9870 O   0  0  0  0  0  0  0  0  0  0  0  0
    3.3337   18.9760  -17.6479 N   0  0  0  0  0  0  0  0  0  0  0  0
    2.9201   18.8796  -19.0310 C   0  0  0  0  0  0  0  0  0  0  0  0
    2.9036   20.3164  -19.5498 C   0  0  2  0  0  0  0  0  0  0  0  0
    2.4220   20.2884  -20.9132 N   0  0  0  0  0  0  0  0  0  0  0  0
    1.3534   19.4949  -21.3508 C   0  0  0  0  0  0  0  0  0  0  0  0
    0.5726   19.8326  -22.3850 N   0  0  0  0  0  0  0  0  0  0  0  0
   -0.4576   19.0451  -22.7894 C   0  0  0  0  0  0  0  0  0  0  0  0
   -0.7440   17.8882  -22.1713 N   0  0  0  0  0  0  0  0  0  0  0  0
    0.0141   17.5025  -21.1220 C   0  0  0  0  0  0  0  0  0  0  0  0
   -0.0308   16.4241  -20.3266 N   0  0  0  0  0  0  0  0  0  0  0  0
    0.9498   16.4899  -19.4093 C   0  0  0  0  0  0  0  0  0  0  0  0
    1.6398   17.6543  -19.6345 C   0  0  0  0  0  0  0  0  0  0  0  0
    1.0721   18.3098  -20.7057 C   0  0  0  0  0  0  0  0  0  0  0  0
    4.3172   20.7866  -19.5308 C   0  0  0  0  0  0  0  0  0  0  0  0
    5.0176   20.6834  -18.2339 C   0  0  0  0  0  0  0  0  0  0  0  0
    4.4724   19.7405  -17.2445 C   0  0  2  0  0  0  0  0  0  0  0  0
    5.5306   18.7706  -16.7413 C   0  0  0  0  0  0  0  0  0  0  0  0
  1  2  2  0
  2  3  1  0
  3  4  2  0
  3  5  1  0
  5  6  1  0
  6  7  1  0
  7  8  1  6
  8  9  1  0
  9 10  2  0
 10 11  1  0
 11 12  2  0
 12 13  1  0
 13 14  1  0
 14 15  1  0
 15 16  2  0
 16 17  1  0
  7 18  1  0
 18 19  1  0
 19 20  1  0
 20 21  1  6
 20  5  1  0
 17  9  1  0
 17 13  2  0
M  END
$$$$
