
     RDKit          3D

 24 26  0  0  0  0  0  0  0  0999 V2000
  -20.2148   38.3292  -26.8825 C   0  0  0  0  0  0  0  0  0  0  0  0
  -19.6464   37.3752  -25.8959 C   0  0  0  0  0  0  0  0  0  0  0  0
  -19.0671   37.6949  -24.6721 C   0  0  0  0  0  0  0  0  0  0  0  0
  -18.6603   36.5126  -24.0624 C   0  0  0  0  0  0  0  0  0  0  0  0
  -18.0237   36.4069  -22.8076 N   0  0  0  0  0  0  0  0  0  0  0  0
  -18.1321   37.4960  -21.9005 C   0  0  0  0  0  0  0  0  0  0  0  0
  -18.7459   38.6562  -22.1745 N   0  0  0  0  0  0  0  0  0  0  0  0
  -18.8177   39.6484  -21.2723 C   0  0  0  0  0  0  0  0  0  0  0  0
  -19.4810   40.8851  -21.5656 N   0  0  0  0  0  0  0  0  0  0  0  0
  -20.1100   41.1441  -22.8165 C   0  0  1  0  0  0  0  0  0  0  0  0
  -21.2176   42.1766  -22.7301 C   0  0  0  0  0  0  0  0  0  0  0  0
  -19.1482   41.5994  -23.8500 C   0  0  0  0  0  0  0  0  0  0  0  0
  -18.0130   42.2566  -23.4691 N   0  0  0  0  0  0  0  0  0  0  0  0
  -17.1107   42.6955  -24.3628 C   0  0  0  0  0  0  0  0  0  0  0  0
  -17.2855   42.5035  -25.7158 C   0  0  0  0  0  0  0  0  0  0  0  0
  -16.3937   42.9319  -26.6441 F   0  0  0  0  0  0  0  0  0  0  0  0
  -18.4401   41.8351  -26.1019 C   0  0  0  0  0  0  0  0  0  0  0  0
  -19.3125   41.4161  -25.1663 N   0  0  0  0  0  0  0  0  0  0  0  0
  -18.2436   39.4282  -20.0724 N   0  0  0  0  0  0  0  0  0  0  0  0
  -17.6134   38.2993  -19.7230 C   0  0  0  0  0  0  0  0  0  0  0  0
  -17.5411   37.2833  -20.6496 C   0  0  0  0  0  0  0  0  0  0  0  0
  -16.7396   35.7909  -20.2632 Cl  0  0  0  0  0  0  0  0  0  0  0  0
  -19.0039   35.5377  -24.9258 N   0  0  0  0  0  0  0  0  0  0  0  0
  -19.5815   36.0471  -25.9989 N   0  0  0  0  0  0  0  0  0  0  0  0
  1  2  1  0
  2  3  2  0
  3  4  1  0
  4  5  1  0
  5  6  1  0
  6  7  2  0
  7  8  1  0
  8  9  1  0
  9 10  1  0
 10 11  1  1
 10 12  1  0
 12 13  2  0
 13 14  1  0
 14 15  2  0
 15 16  1  0
 15 17  1  0
 17 18  2  0
  8 19  2  0
 19 20  1  0
 20 21  2  0
 21 22  1  0
  4 23  2  0
 23 24  1  0
 24  2  1  0
 21  6  1  0
 18 12  1  0
M  END
$$$$
