
     RDKit          3D

 13 14  0  0  0  0  0  0  0  0999 V2000
  -18.0616   -0.5902  -34.2620 N   0  0  0  0  0  0  0  0  0  0  0  0
  -18.4699    1.0758  -33.9842 S   0  0  0  0  0  6  0  0  0  0  0  0
  -18.9409    1.6260  -35.3130 O   0  0  0  0  0  0  0  0  0  0  0  0
  -17.2708    1.8198  -33.4895 O   0  0  0  0  0  0  0  0  0  0  0  0
  -19.7864    1.1665  -32.8314 C   0  0  0  0  0  0  0  0  0  0  0  0
  -20.9901    0.5517  -33.0973 C   0  0  0  0  0  0  0  0  0  0  0  0
  -21.9722    0.6703  -32.1409 C   0  0  0  0  0  0  0  0  0  0  0  0
  -21.7764    1.3795  -30.9450 C   0  0  0  0  0  0  0  0  0  0  0  0
  -20.5772    1.9864  -30.6913 C   0  0  0  0  0  0  0  0  0  0  0  0
  -19.5822    1.8629  -31.6665 C   0  0  0  0  0  0  0  0  0  0  0  0
  -20.6031    2.6770  -29.3739 C   0  0  0  0  0  0  0  0  0  0  0  0
  -21.7544    2.0045  -28.6773 C   0  0  0  0  0  0  0  0  0  0  0  0
  -22.7182    1.6103  -29.7976 C   0  0  0  0  0  0  0  0  0  0  0  0
  1  2  1  0
  2  3  2  0
  2  4  2  0
  2  5  1  0
  5  6  2  0
  6  7  1  0
  7  8  2  0
  8  9  1  0
  9 10  2  0
  9 11  1  0
 11 12  1  0
 12 13  1  0
 10  5  1  0
 13  8  1  0
M  END
$$$$
