
     RDKit          3D

 15 16  0  0  0  0  0  0  0  0999 V2000
  -17.9090   39.9936  -24.9637 C   0  0  0  0  0  0  0  0  0  0  0  0
  -17.8187   40.5969  -23.5749 C   0  0  0  0  0  0  0  0  0  0  0  0
  -18.9715   41.5757  -23.3756 C   0  0  0  0  0  0  0  0  0  0  0  0
  -17.7446   39.6247  -22.5350 N   0  0  0  0  0  0  0  0  0  0  0  0
  -17.3066   39.8856  -21.2903 N   0  0  0  0  0  0  0  0  0  0  0  0
  -17.3537   38.7942  -20.5546 N   0  0  0  0  0  0  0  0  0  0  0  0
  -17.8335   37.7925  -21.3327 C   0  0  0  0  0  0  0  0  0  0  0  0
  -18.0970   36.4604  -21.1198 C   0  0  0  0  0  0  0  0  0  0  0  0
  -18.5951   35.6696  -22.1302 C   0  0  0  0  0  0  0  0  0  0  0  0
  -18.8619   34.2638  -21.8676 C   0  0  0  0  0  0  0  0  0  0  0  0
  -18.5572   33.7735  -20.7707 O   0  0  0  0  0  0  0  0  0  0  0  0
  -19.4542   33.5020  -22.8566 O   0  0  0  0  0  0  0  0  0  0  0  0
  -18.8429   36.2042  -23.3920 C   0  0  0  0  0  0  0  0  0  0  0  0
  -18.5780   37.5328  -23.5977 C   0  0  0  0  0  0  0  0  0  0  0  0
  -18.0779   38.3199  -22.5778 C   0  0  0  0  0  0  0  0  0  0  0  0
  1  2  1  0
  2  3  1  0
  2  4  1  0
  4  5  1  0
  5  6  2  0
  6  7  1  0
  7  8  2  0
  8  9  1  0
  9 10  1  0
 10 11  2  0
 10 12  1  0
  9 13  2  0
 13 14  1  0
 14 15  2  0
 15  4  1  0
 15  7  1  0
M  END
$$$$
