
     RDKit          3D

 37 40  0  0  0  0  0  0  0  0999 V2000
  -18.5035   47.3225  -24.1568 C   0  0  0  0  0  0  0  0  0  0  0  0
  -18.5049   46.0283  -23.4918 N   0  0  0  0  0  0  0  0  0  0  0  0
  -17.4599   45.1260  -23.8166 C   0  0  0  0  0  0  0  0  0  0  0  0
  -16.2735   45.4549  -23.6300 O   0  0  0  0  0  0  0  0  0  0  0  0
  -17.8305   43.8057  -24.3747 C   0  0  1  0  0  0  0  0  0  0  0  0
  -17.6869   43.8529  -25.8526 C   0  0  0  0  0  0  0  0  0  0  0  0
  -16.6932   44.5588  -26.4875 C   0  0  0  0  0  0  0  0  0  0  0  0
  -16.5609   44.5915  -27.8564 C   0  0  0  0  0  0  0  0  0  0  0  0
  -17.4383   43.9037  -28.6561 C   0  0  0  0  0  0  0  0  0  0  0  0
  -18.4460   43.1866  -28.0496 C   0  0  0  0  0  0  0  0  0  0  0  0
  -18.5606   43.1674  -26.6665 C   0  0  0  0  0  0  0  0  0  0  0  0
  -17.0349   42.7952  -23.7377 N   0  0  0  0  0  0  0  0  0  0  0  0
  -15.7428   43.3238  -23.4394 C   0  0  0  0  0  0  0  0  0  0  0  0
  -15.7768   44.3695  -22.3416 C   0  0  0  0  0  0  0  0  0  0  0  0
  -16.4454   43.7502  -21.1778 C   0  0  0  0  0  0  0  0  0  0  0  0
  -16.1260   44.2764  -19.9193 C   0  0  0  0  0  0  0  0  0  0  0  0
  -16.7092   43.7475  -18.7899 C   0  0  0  0  0  0  0  0  0  0  0  0
  -16.4503   44.2076  -17.5047 O   0  0  0  0  0  0  0  0  0  0  0  0
  -15.3469   45.0071  -17.1687 C   0  0  0  0  0  0  0  0  0  0  0  0
  -17.6158   42.6885  -18.9125 C   0  0  0  0  0  0  0  0  0  0  0  0
  -18.2188   42.1361  -17.7885 O   0  0  0  0  0  0  0  0  0  0  0  0
  -18.3041   40.7299  -17.6866 C   0  0  0  0  0  0  0  0  0  0  0  0
  -17.8977   42.2051  -20.1742 C   0  0  0  0  0  0  0  0  0  0  0  0
  -17.3265   42.7185  -21.3176 C   0  0  0  0  0  0  0  0  0  0  0  0
  -17.6645   42.1685  -22.6249 C   0  0  2  0  0  0  0  0  0  0  0  0
  -17.5936   40.6679  -22.6874 C   0  0  0  0  0  0  0  0  0  0  0  0
  -18.6322   39.9926  -23.5014 C   0  0  0  0  0  0  0  0  0  0  0  0
  -18.5613   38.5348  -23.1803 C   0  0  0  0  0  0  0  0  0  0  0  0
  -19.4006   37.9207  -22.2768 C   0  0  0  0  0  0  0  0  0  0  0  0
  -19.3174   36.5682  -21.9970 C   0  0  0  0  0  0  0  0  0  0  0  0
  -18.3714   35.7936  -22.6323 C   0  0  0  0  0  0  0  0  0  0  0  0
  -18.2744   34.3382  -22.3377 C   0  0  0  0  0  0  0  0  0  0  0  0
  -17.4658   33.7735  -23.3027 F   0  0  0  0  0  0  0  0  0  0  0  0
  -17.7726   34.1415  -21.0693 F   0  0  0  0  0  0  0  0  0  0  0  0
  -19.5553   33.8158  -22.4031 F   0  0  0  0  0  0  0  0  0  0  0  0
  -17.5298   36.4039  -23.5368 C   0  0  0  0  0  0  0  0  0  0  0  0
  -17.6194   37.7639  -23.8128 C   0  0  0  0  0  0  0  0  0  0  0  0
  1  2  1  0
  2  3  1  0
  3  4  2  0
  3  5  1  0
  5  6  1  0
  6  7  2  0
  7  8  1  0
  8  9  2  0
  9 10  1  0
 10 11  2  0
  5 12  1  1
 12 13  1  0
 13 14  1  0
 14 15  1  0
 15 16  2  0
 16 17  1  0
 17 18  1  0
 18 19  1  0
 17 20  2  0
 20 21  1  0
 21 22  1  0
 20 23  1  0
 23 24  2  0
 24 25  1  0
 25 26  1  1
 26 27  1  0
 27 28  1  0
 28 29  2  0
 29 30  1  0
 30 31  2  0
 31 32  1  0
 32 33  1  0
 32 34  1  0
 32 35  1  0
 31 36  1  0
 36 37  2  0
 11  6  1  0
 25 12  1  0
 37 28  1  0
 24 15  1  0
M  END
$$$$
