
     RDKit          3D

 23 25  0  0  0  0  0  0  0  0999 V2000
  -15.1549   45.1034  -21.4385 C   0  0  0  0  0  0  0  0  0  0  0  0
  -15.5387   43.6831  -21.1644 C   0  0  0  0  0  0  0  0  0  0  0  0
  -16.4402   43.3666  -20.1720 C   0  0  0  0  0  0  0  0  0  0  0  0
  -16.8235   42.0830  -19.8827 C   0  0  0  0  0  0  0  0  0  0  0  0
  -16.2925   41.0436  -20.6086 C   0  0  0  0  0  0  0  0  0  0  0  0
  -16.6452   39.7196  -20.3589 O   0  0  0  0  0  0  0  0  0  0  0  0
  -17.1191   38.9675  -21.4207 C   0  0  0  0  0  0  0  0  0  0  0  0
  -16.2329   38.2948  -22.2310 C   0  0  0  0  0  0  0  0  0  0  0  0
  -16.7013   37.5470  -23.2865 C   0  0  0  0  0  0  0  0  0  0  0  0
  -18.0521   37.4414  -23.5722 C   0  0  0  0  0  0  0  0  0  0  0  0
  -18.9286   38.1119  -22.7638 C   0  0  0  0  0  0  0  0  0  0  0  0
  -18.4782   38.8732  -21.6922 C   0  0  0  0  0  0  0  0  0  0  0  0
  -20.2748   37.8333  -23.2817 C   0  0  0  0  0  0  0  0  0  0  0  0
  -21.3157   38.3267  -22.7290 O   0  0  0  0  0  0  0  0  0  0  0  0
  -20.1692   36.9934  -24.3999 N   0  0  0  0  0  0  0  0  0  0  0  0
  -21.2887   36.4921  -25.1932 C   0  0  0  0  0  0  0  0  0  0  0  0
  -21.6583   37.4869  -26.2332 C   0  0  0  0  0  0  0  0  0  0  0  0
  -22.6533   37.2063  -26.9616 O   0  0  0  0  0  0  0  0  0  0  0  0
  -20.9610   38.6642  -26.4096 O   0  0  0  0  0  0  0  0  0  0  0  0
  -18.8027   36.7375  -24.5986 C   0  0  0  0  0  0  0  0  0  0  0  0
  -18.3038   36.0119  -25.5213 O   0  0  0  0  0  0  0  0  0  0  0  0
  -15.3882   41.3412  -21.6064 C   0  0  0  0  0  0  0  0  0  0  0  0
  -15.0122   42.6357  -21.8862 C   0  0  0  0  0  0  0  0  0  0  0  0
  1  2  1  0
  2  3  2  0
  3  4  1  0
  4  5  2  0
  5  6  1  0
  6  7  1  0
  7  8  2  0
  8  9  1  0
  9 10  2  0
 10 11  1  0
 11 12  2  0
 11 13  1  0
 13 14  2  0
 13 15  1  0
 15 16  1  0
 16 17  1  0
 17 18  2  0
 17 19  1  0
 15 20  1  0
 20 21  2  0
  5 22  1  0
 22 23  2  0
 23  2  1  0
 12  7  1  0
 20 10  1  0
M  END
$$$$
