
     RDKit          3D

 20 21  0  0  0  0  0  0  0  0999 V2000
    2.8555    7.3801  -27.7228 C   0  0  0  0  0  0  0  0  0  0  0  0
    4.2834    7.1548  -27.4006 C   0  0  0  0  0  0  0  0  0  0  0  0
    4.5936    6.4446  -26.2862 C   0  0  0  0  0  0  0  0  0  0  0  0
    5.9181    6.2348  -25.9917 C   0  0  0  0  0  0  0  0  0  0  0  0
    6.9084    6.7325  -26.8058 C   0  0  0  0  0  0  0  0  0  0  0  0
    8.1989    6.5286  -26.5499 N   0  0  0  0  0  0  0  0  0  0  0  0
    9.2199    6.9683  -27.3031 C   0  0  0  0  0  0  0  0  0  0  0  0
   10.5407    6.7515  -27.1585 N   0  0  0  0  0  0  0  0  0  0  0  0
   11.8962    6.5290  -27.0100 C   0  0  0  0  0  0  0  0  0  0  0  0
   12.5303    7.0702  -25.7422 C   0  0  0  0  0  0  0  0  0  0  0  0
   12.4030    8.4904  -25.5907 N   0  0  0  0  0  0  0  0  0  0  0  0
    8.8021    7.7115  -28.4575 C   0  0  0  0  0  0  0  0  0  0  0  0
    9.5891    8.2681  -29.3781 N   0  0  0  0  0  0  0  0  0  0  0  0
    8.7758    8.8553  -30.2649 C   0  0  0  0  0  0  0  0  0  0  0  0
    7.4652    8.6524  -29.8794 C   0  0  0  0  0  0  0  0  0  0  0  0
    6.3326    9.1633  -30.6681 C   0  0  0  0  0  0  0  0  0  0  0  0
    7.5262    7.9334  -28.7436 N   0  0  0  0  0  0  0  0  0  0  0  0
    6.5601    7.4626  -27.9482 C   0  0  0  0  0  0  0  0  0  0  0  0
    5.2542    7.6841  -28.2625 C   0  0  0  0  0  0  0  0  0  0  0  0
    8.5617    7.6363  -27.5808 Cl  0  0  0  0  0  0  0  0  0  0  0  0
  1  2  1  0
  2  3  2  0
  3  4  1  0
  4  5  2  0
  5  6  1  0
  6  7  2  0
  7  8  1  0
  8  9  1  0
  9 10  1  0
 10 11  1  0
  7 12  1  0
 12 13  2  0
 13 14  1  0
 14 15  2  0
 15 16  1  0
 15 17  1  0
 17 18  1  0
 18 19  2  0
 19  2  1  0
 18  5  1  0
 17 12  1  0
M  END
$$$$
