
     RDKit          3D

 31 32  0  0  0  0  0  0  0  0999 V2000
  -31.1439   11.6635  -23.4830 C   0  0  0  0  0  0  0  0  0  0  0  0
  -32.0687   12.5116  -24.1599 O   0  0  0  0  0  0  0  0  0  0  0  0
  -31.6624   13.5989  -24.8858 C   0  0  0  0  0  0  0  0  0  0  0  0
  -30.2103   13.7403  -24.8996 C   0  0  0  0  0  0  0  0  0  0  0  0
  -29.8457   14.8495  -25.5354 C   0  0  0  0  0  0  0  0  0  0  0  0
  -30.5521   15.8571  -26.1522 C   0  0  0  0  0  0  0  0  0  0  0  0
  -29.5675   16.8685  -26.6334 C   0  0  0  0  0  0  0  0  0  0  0  0
  -28.4710   16.9661  -25.8990 C   0  0  0  0  0  0  0  0  0  0  0  0
  -27.3498   17.7130  -26.1410 C   0  0  0  0  0  0  0  0  0  0  0  0
  -26.1124   17.8404  -25.6688 N   0  0  0  0  0  0  0  0  0  0  0  0
  -25.4289   18.6783  -26.4455 C   0  0  0  0  0  0  0  0  0  0  0  0
  -26.3058   19.0522  -27.4491 C   0  0  0  0  0  0  0  0  0  0  0  0
  -27.5129   18.5082  -27.2999 N   0  0  0  0  0  0  0  0  0  0  0  0
  -28.6318   18.4333  -28.0020 C   0  0  0  0  0  0  0  0  0  0  0  0
  -28.7084   19.3971  -29.1331 N   0  0  0  0  0  0  0  0  0  0  0  0
  -29.0962   20.6352  -28.5897 C   0  0  0  0  0  0  0  0  0  0  0  0
  -29.5039   20.7240  -27.3200 N   0  0  0  0  0  0  0  0  0  0  0  0
  -29.8582   21.9312  -26.7737 C   0  0  0  0  0  0  0  0  0  0  0  0
  -29.7550   23.0657  -27.5491 C   0  0  0  0  0  0  0  0  0  0  0  0
  -29.3653   23.0522  -28.8388 C   0  0  0  0  0  0  0  0  0  0  0  0
  -29.0347   21.7906  -29.3759 C   0  0  0  0  0  0  0  0  0  0  0  0
  -28.6452   21.6593  -30.7831 C   0  0  0  0  0  0  0  0  0  0  0  0
  -29.5577   22.6908  -31.5678 N   0  0  0  0  0  0  0  0  0  0  0  0
  -27.9092   21.0486  -31.3599 O   0  0  0  0  0  0  0  0  0  0  0  0
  -29.7142   17.6206  -27.7274 N   0  0  0  0  0  0  0  0  0  0  0  0
  -31.7711   15.6399  -26.0809 C   0  0  0  0  0  0  0  0  0  0  0  0
  -32.5631   14.5652  -25.5223 C   0  0  0  0  0  0  0  0  0  0  0  0
  -33.6323   14.1299  -25.3265 O   0  0  0  0  0  0  0  0  0  0  0  0
  -34.8262   13.6562  -25.1148 C   0  0  0  0  0  0  0  0  0  0  0  0
  -30.0629   16.8987  -26.6814 Cl  0  0  0  0  0  0  0  0  0  0  0  0
  -30.0639   16.8962  -26.6800 Cl  0  0  0  0  0  0  0  0  0  0  0  0
  1  2  1  0
  2  3  1  0
  3  4  2  0
  4  5  1  0
  5  6  2  0
  6  7  1  0
  7  8  2  0
  8  9  1  0
  9 10  2  0
 10 11  1  0
 11 12  2  0
 12 13  1  0
 13 14  1  0
 14 15  1  0
 15 16  1  0
 16 17  2  0
 17 18  1  0
 18 19  2  0
 19 20  1  0
 20 21  2  0
 21 22  1  0
 22 23  1  0
 22 24  2  0
 14 25  2  0
  6 26  1  0
 26 27  2  0
 27 28  1  0
 28 29  1  0
 27  3  1  0
 25  7  1  0
 13  9  1  0
 21 16  1  0
M  END
$$$$
