
     RDKit          3D

 14 14  0  0  0  0  0  0  0  0999 V2000
  -27.3014   26.9547  -35.4134 C   0  0  0  0  0  0  0  0  0  0  0  0
  -26.0921   27.7005  -35.1302 N   0  0  0  0  0  0  0  0  0  0  0  0
  -25.8959   29.0069  -35.6644 C   0  0  0  0  0  0  0  0  0  0  0  0
  -25.1014   27.1016  -34.3059 C   0  0  0  0  0  0  0  0  0  0  0  0
  -24.0643   27.7741  -33.9757 O   0  0  0  0  0  0  0  0  0  0  0  0
  -25.2367   25.7712  -33.8397 N   0  0  0  0  0  0  0  0  0  0  0  0
  -24.2562   25.2234  -32.9654 C   0  0  0  0  0  0  0  0  0  0  0  0
  -23.7386   23.9773  -33.2711 C   0  0  0  0  0  0  0  0  0  0  0  0
  -22.7907   23.4582  -32.4175 C   0  0  0  0  0  0  0  0  0  0  0  0
  -22.3781   24.1562  -31.3050 C   0  0  0  0  0  0  0  0  0  0  0  0
  -21.1637   23.5105  -30.1958 Cl  0  0  0  0  0  0  0  0  0  0  0  0
  -22.8900   25.3942  -30.9982 C   0  0  0  0  0  0  0  0  0  0  0  0
  -22.3922   26.3138  -29.5941 Cl  0  0  0  0  0  0  0  0  0  0  0  0
  -23.8376   25.9156  -31.8496 C   0  0  0  0  0  0  0  0  0  0  0  0
  1  2  1  0
  2  3  1  0
  2  4  1  0
  4  5  2  0
  4  6  1  0
  6  7  1  0
  7  8  2  0
  8  9  1  0
  9 10  2  0
 10 11  1  0
 10 12  1  0
 12 13  1  0
 12 14  2  0
 14  7  1  0
M  END
$$$$
