
     RDKit          3D

 34 38  0  0  0  0  0  0  0  0999 V2000
  -29.0537   21.1657  -30.3460 O   0  0  0  0  0  0  0  0  0  0  0  0
  -28.0023   20.9105  -29.7314 C   0  0  0  0  0  0  0  0  0  0  0  0
  -26.8435   21.5570  -29.9473 N   0  0  0  0  0  0  0  0  0  0  0  0
  -25.9256   21.0189  -29.1076 C   0  0  0  0  0  0  0  0  0  0  0  0
  -24.5839   21.2666  -28.8768 C   0  0  0  0  0  0  0  0  0  0  0  0
  -23.8470   20.5664  -27.9460 C   0  0  0  0  0  0  0  0  0  0  0  0
  -24.4792   19.5817  -27.2202 C   0  0  0  0  0  0  0  0  0  0  0  0
  -25.8112   19.3149  -27.4293 C   0  0  0  0  0  0  0  0  0  0  0  0
  -26.5379   20.0291  -28.3699 C   0  0  0  0  0  0  0  0  0  0  0  0
  -27.8474   19.9656  -28.7676 N   0  0  0  0  0  0  0  0  0  0  0  0
  -28.7779   19.0451  -28.2078 C   0  0  0  0  0  0  0  0  0  0  0  0
  -29.9488   19.7248  -27.4928 C   0  0  0  0  0  0  0  0  0  0  0  0
  -30.6217   18.6131  -26.7160 C   0  0  0  0  0  0  0  0  0  0  0  0
  -31.2589   17.7428  -27.6779 N   0  0  0  0  0  0  0  0  0  0  0  0
  -31.8996   16.6627  -26.9558 C   0  0  0  0  0  0  0  0  0  0  0  0
  -33.2517   17.1696  -26.4343 C   0  0  0  0  0  0  0  0  0  0  0  0
  -34.0159   16.0685  -25.7736 C   0  0  0  0  0  0  0  0  0  0  0  0
  -33.5913   15.7309  -24.3913 C   0  0  0  0  0  0  0  0  0  0  0  0
  -34.6814   15.3716  -23.4593 C   0  0  0  0  0  0  0  0  0  0  0  0
  -35.2706   16.2004  -22.5528 C   0  0  0  0  0  0  0  0  0  0  0  0
  -36.2912   15.7555  -21.7466 C   0  0  0  0  0  0  0  0  0  0  0  0
  -36.7418   14.4385  -21.8453 C   0  0  0  0  0  0  0  0  0  0  0  0
  -37.7423   13.9638  -21.0706 F   0  0  0  0  0  0  0  0  0  0  0  0
  -36.1666   13.5824  -22.7486 C   0  0  0  0  0  0  0  0  0  0  0  0
  -35.1498   14.0589  -23.5387 C   0  0  0  0  0  0  0  0  0  0  0  0
  -32.5766   14.6493  -24.3672 C   0  0  0  0  0  0  0  0  0  0  0  0
  -32.6301   13.6508  -25.3052 C   0  0  0  0  0  0  0  0  0  0  0  0
  -31.7042   12.6189  -25.3493 C   0  0  0  0  0  0  0  0  0  0  0  0
  -30.7021   12.6056  -24.4160 C   0  0  0  0  0  0  0  0  0  0  0  0
  -29.7621   11.6307  -24.3956 F   0  0  0  0  0  0  0  0  0  0  0  0
  -30.6231   13.6009  -23.4571 C   0  0  0  0  0  0  0  0  0  0  0  0
  -31.5699   14.6354  -23.4307 C   0  0  0  0  0  0  0  0  0  0  0  0
  -30.4205   17.2101  -28.6814 C   0  0  0  0  0  0  0  0  0  0  0  0
  -29.3907   18.1578  -29.2317 C   0  0  0  0  0  0  0  0  0  0  0  0
  1  2  2  0
  2  3  1  0
  3  4  1  0
  4  5  2  0
  5  6  1  0
  6  7  2  0
  7  8  1  0
  8  9  2  0
  9 10  1  0
 10 11  1  0
 11 12  1  0
 12 13  1  0
 13 14  1  0
 14 15  1  0
 15 16  1  0
 16 17  1  0
 17 18  1  0
 18 19  1  0
 19 20  2  0
 20 21  1  0
 21 22  2  0
 22 23  1  0
 22 24  1  0
 24 25  2  0
 18 26  1  0
 26 27  2  0
 27 28  1  0
 28 29  2  0
 29 30  1  0
 29 31  1  0
 31 32  2  0
 14 33  1  0
 33 34  1  0
 10  2  1  0
 34 11  1  0
  9  4  1  0
 25 19  1  0
 32 26  1  0
M  END
$$$$
