
     RDKit          3D

 21 23  0  0  0  0  0  0  0  0999 V2000
  -11.6042   45.6220  -12.1920 C   0  0  0  0  0  0  0  0  0  0  0  0
  -11.0369   45.9185  -13.4805 O   0  0  0  0  0  0  0  0  0  0  0  0
  -11.6807   45.3989  -14.6281 C   0  0  0  0  0  0  0  0  0  0  0  0
  -12.7385   44.7742  -14.4266 O   0  0  0  0  0  0  0  0  0  0  0  0
  -11.1543   45.5792  -15.9156 N   0  0  0  0  0  0  0  0  0  0  0  0
  -11.8260   45.1359  -17.0750 C   0  0  0  0  0  0  0  0  0  0  0  0
  -11.3949   45.2570  -18.3644 N   0  0  0  0  0  0  0  0  0  0  0  0
  -12.2858   44.7411  -19.2048 C   0  0  0  0  0  0  0  0  0  0  0  0
  -12.3832   44.5834  -20.5692 C   0  0  0  0  0  0  0  0  0  0  0  0
  -13.4931   43.9738  -21.1590 C   0  0  0  0  0  0  0  0  0  0  0  0
  -14.5316   43.5070  -20.4151 C   0  0  0  0  0  0  0  0  0  0  0  0
  -15.7350   42.8791  -20.8977 C   0  0  0  0  0  0  0  0  0  0  0  0
  -16.0974   41.7668  -20.3840 O   0  0  0  0  0  0  0  0  0  0  0  0
  -16.6069   43.3932  -21.9351 C   0  0  0  0  0  0  0  0  0  0  0  0
  -16.6669   44.6050  -22.5244 C   0  0  0  0  0  0  0  0  0  0  0  0
  -17.5667   44.8487  -23.4773 C   0  0  0  0  0  0  0  0  0  0  0  0
  -18.4267   43.7720  -23.8110 C   0  0  0  0  0  0  0  0  0  0  0  0
  -17.9046   42.4816  -22.7501 S   0  0  0  0  0  0  0  0  0  0  0  0
  -14.4074   43.6784  -19.0247 C   0  0  0  0  0  0  0  0  0  0  0  0
  -13.3222   44.2748  -18.4518 C   0  0  0  0  0  0  0  0  0  0  0  0
  -13.0127   44.5299  -17.1604 N   0  0  0  0  0  0  0  0  0  0  0  0
  1  2  1  0
  2  3  1  0
  3  4  2  0
  3  5  1  0
  5  6  1  0
  6  7  2  0
  7  8  1  0
  8  9  2  0
  9 10  1  0
 10 11  2  0
 11 12  1  0
 12 13  2  0
 12 14  1  0
 14 15  2  0
 15 16  1  0
 16 17  2  0
 17 18  1  0
 11 19  1  0
 19 20  2  0
 20 21  1  0
 21  6  1  0
 20  8  1  0
 18 14  1  0
M  END
$$$$
