
     RDKit          3D

 23 25  0  0  0  0  0  0  0  0999 V2000
  -19.5554   37.7757  -25.9841 C   0  0  0  0  0  0  0  0  0  0  0  0
  -20.3302   38.0707  -24.7205 C   0  0  0  0  0  0  0  0  0  0  0  0
  -19.4942   38.2666  -23.5724 N   0  0  0  0  0  0  0  0  0  0  0  0
  -19.1295   39.5070  -23.1782 C   0  0  0  0  0  0  0  0  0  0  0  0
  -18.3483   39.7359  -22.0727 C   0  0  0  0  0  0  0  0  0  0  0  0
  -17.9799   41.0930  -21.6854 C   0  0  0  0  0  0  0  0  0  0  0  0
  -18.2873   42.0785  -22.3966 O   0  0  0  0  0  0  0  0  0  0  0  0
  -17.2817   41.3318  -20.5243 O   0  0  0  0  0  0  0  0  0  0  0  0
  -17.9057   38.6716  -21.3181 C   0  0  0  0  0  0  0  0  0  0  0  0
  -17.1839   38.8324  -20.2905 O   0  0  0  0  0  0  0  0  0  0  0  0
  -18.2760   37.4064  -21.7186 C   0  0  0  0  0  0  0  0  0  0  0  0
  -17.8297   36.3495  -20.9709 C   0  0  0  0  0  0  0  0  0  0  0  0
  -18.1811   35.0747  -21.3553 C   0  0  0  0  0  0  0  0  0  0  0  0
  -17.7047   34.0567  -20.5988 F   0  0  0  0  0  0  0  0  0  0  0  0
  -18.9587   34.8013  -22.4523 C   0  0  0  0  0  0  0  0  0  0  0  0
  -19.3644   33.5291  -22.8694 N   0  0  0  0  0  0  0  0  0  0  0  0
  -18.6593   32.3379  -22.3405 C   0  0  0  0  0  0  0  0  0  0  0  0
  -19.6526   31.1656  -22.4242 C   0  0  0  0  0  0  0  0  0  0  0  0
  -20.9401   31.6398  -21.9991 N   0  0  0  0  0  0  0  0  0  0  0  0
  -21.4982   32.4750  -23.0387 C   0  0  0  0  0  0  0  0  0  0  0  0
  -20.4125   33.2049  -23.8062 C   0  0  0  0  0  0  0  0  0  0  0  0
  -19.3888   35.9190  -23.1827 C   0  0  0  0  0  0  0  0  0  0  0  0
  -19.0763   37.2161  -22.8562 C   0  0  0  0  0  0  0  0  0  0  0  0
  1  2  1  0
  2  3  1  0
  3  4  1  0
  4  5  2  0
  5  6  1  0
  6  7  2  0
  6  8  1  0
  5  9  1  0
  9 10  2  0
  9 11  1  0
 11 12  2  0
 12 13  1  0
 13 14  1  0
 13 15  2  0
 15 16  1  0
 16 17  1  0
 17 18  1  0
 18 19  1  0
 19 20  1  0
 20 21  1  0
 15 22  1  0
 22 23  2  0
 23  3  1  0
 23 11  1  0
 21 16  1  0
M  END
$$$$
