
     RDKit          3D

 21 22  0  0  0  0  0  0  0  0999 V2000
  -28.5036   22.8124  -26.4082 C   0  0  0  0  0  0  0  0  0  0  0  0
  -29.3436   22.5410  -27.5598 N   0  0  0  0  0  0  0  0  0  0  0  0
  -29.1072   21.2430  -28.0725 C   0  0  0  0  0  0  0  0  0  0  0  0
  -29.5932   20.1229  -27.1166 C   0  0  0  0  0  0  0  0  0  0  0  0
  -29.3119   18.8313  -27.7202 C   0  0  0  0  0  0  0  0  0  0  0  0
  -29.6338   17.5879  -27.1742 N   0  0  0  0  0  0  0  0  0  0  0  0
  -30.8912   16.9597  -27.4877 C   0  0  0  0  0  0  0  0  0  0  0  0
  -31.8046   17.8698  -27.9425 C   0  0  0  0  0  0  0  0  0  0  0  0
  -33.0688   17.4730  -28.3065 C   0  0  0  0  0  0  0  0  0  0  0  0
  -33.4334   16.1331  -28.2151 C   0  0  0  0  0  0  0  0  0  0  0  0
  -32.5432   15.1858  -27.7625 C   0  0  0  0  0  0  0  0  0  0  0  0
  -31.2772   15.6319  -27.4061 C   0  0  0  0  0  0  0  0  0  0  0  0
  -30.4330   14.4969  -26.9576 C   0  0  0  0  0  0  0  0  0  0  0  0
  -29.9213   14.7983  -25.5925 C   0  0  0  0  0  0  0  0  0  0  0  0
  -28.7935   15.7567  -25.5819 C   0  0  0  0  0  0  0  0  0  0  0  0
  -27.7866   15.3208  -24.7557 C   0  0  0  0  0  0  0  0  0  0  0  0
  -26.6328   16.0642  -24.5727 C   0  0  0  0  0  0  0  0  0  0  0  0
  -26.5550   17.2558  -25.2609 C   0  0  0  0  0  0  0  0  0  0  0  0
  -27.5714   17.6853  -26.0885 C   0  0  0  0  0  0  0  0  0  0  0  0
  -28.7112   16.9717  -26.2834 C   0  0  0  0  0  0  0  0  0  0  0  0
  -29.5326   18.5931  -26.9422 Cl  0  0  0  0  0  0  0  0  0  0  0  0
  1  2  1  0
  2  3  1  0
  3  4  1  0
  4  5  1  0
  5  6  1  0
  6  7  1  0
  7  8  2  0
  8  9  1  0
  9 10  2  0
 10 11  1  0
 11 12  2  0
 12 13  1  0
 13 14  1  0
 14 15  1  0
 15 16  2  0
 16 17  1  0
 17 18  2  0
 18 19  1  0
 19 20  2  0
 20  6  1  0
 12  7  1  0
 20 15  1  0
M  END
$$$$
