
     RDKit          3D

 43 51  0  0  0  0  0  0  0  0999 V2000
  -24.5988   19.3639  -34.5862 C   0  0  0  0  0  0  0  0  0  0  0  0
  -24.9254   18.6062  -33.4740 O   0  0  0  0  0  0  0  0  0  0  0  0
  -24.0235   17.6037  -33.2229 C   0  0  2  0  0  0  0  0  0  0  0  0
  -24.6495   16.2813  -33.4790 C   0  0  2  0  0  0  0  0  0  0  0  0
  -25.3078   16.0236  -34.7001 N   0  0  0  0  0  0  0  0  0  0  0  0
  -26.6839   15.6340  -34.8247 C   0  0  0  0  0  0  0  0  0  0  0  0
  -24.5485   16.0973  -35.9111 C   0  0  0  0  0  0  0  0  0  0  0  0
  -24.9058   16.8856  -36.8429 O   0  0  0  0  0  0  0  0  0  0  0  0
  -23.3647   15.3027  -36.1692 C   0  0  0  0  0  0  0  0  0  0  0  0
  -23.1164   14.0294  -35.7470 C   0  0  0  0  0  0  0  0  0  0  0  0
  -21.9334   13.3616  -36.0929 C   0  0  0  0  0  0  0  0  0  0  0  0
  -20.9849   13.9818  -36.8750 C   0  0  0  0  0  0  0  0  0  0  0  0
  -21.2140   15.2864  -37.3214 C   0  0  0  0  0  0  0  0  0  0  0  0
  -22.3867   15.9127  -36.9626 C   0  0  0  0  0  0  0  0  0  0  0  0
  -25.7038   16.1006  -32.3585 C   0  0  0  0  0  0  0  0  0  0  0  0
  -24.8144   15.7468  -31.1387 C   0  0  1  0  0  0  0  0  0  0  0  0
  -23.6058   16.3127  -31.2119 O   0  0  0  0  0  0  0  0  0  0  0  0
  -23.4873   17.5754  -31.8036 C   0  0  1  0  0  0  0  0  0  0  0  0
  -21.9537   17.7551  -31.8769 C   0  0  0  0  0  0  0  0  0  0  0  0
  -24.0048   18.6170  -30.9377 N   0  0  0  0  0  0  0  0  0  0  0  0
  -23.6221   19.9217  -30.9390 C   0  0  0  0  0  0  0  0  0  0  0  0
  -22.7361   20.6268  -31.6967 C   0  0  0  0  0  0  0  0  0  0  0  0
  -22.5254   21.9946  -31.4736 C   0  0  0  0  0  0  0  0  0  0  0  0
  -23.1968   22.6817  -30.4910 C   0  0  0  0  0  0  0  0  0  0  0  0
  -24.0969   21.9841  -29.7149 C   0  0  0  0  0  0  0  0  0  0  0  0
  -24.3001   20.6247  -29.9422 C   0  0  0  0  0  0  0  0  0  0  0  0
  -25.1041   19.7263  -29.3297 C   0  0  0  0  0  0  0  0  0  0  0  0
  -25.9934   19.8202  -28.2481 C   0  0  0  0  0  0  0  0  0  0  0  0
  -26.6809   18.7198  -27.7898 C   0  0  0  0  0  0  0  0  0  0  0  0
  -26.4778   17.5140  -28.4201 C   0  0  0  0  0  0  0  0  0  0  0  0
  -26.9978   16.2404  -28.2298 C   0  0  0  0  0  0  0  0  0  0  0  0
  -27.8782   15.6724  -27.3625 C   0  0  0  0  0  0  0  0  0  0  0  0
  -28.1607   14.3191  -27.4752 C   0  0  0  0  0  0  0  0  0  0  0  0
  -27.5810   13.5242  -28.4367 C   0  0  0  0  0  0  0  0  0  0  0  0
  -26.6902   14.0974  -29.3143 C   0  0  0  0  0  0  0  0  0  0  0  0
  -26.4003   15.4423  -29.2134 C   0  0  0  0  0  0  0  0  0  0  0  0
  -25.5810   16.1597  -29.9493 N   0  0  0  0  0  0  0  0  0  0  0  0
  -25.6011   17.4114  -29.4940 C   0  0  0  0  0  0  0  0  0  0  0  0
  -24.9281   18.5282  -29.9257 C   0  0  0  0  0  0  0  0  0  0  0  0
  -27.5213   19.1271  -26.6847 C   0  0  0  0  0  0  0  0  0  0  0  0
  -28.3139   18.4981  -25.9578 O   0  0  0  0  0  0  0  0  0  0  0  0
  -27.2978   20.5390  -26.5061 N   0  0  0  0  0  0  0  0  0  0  0  0
  -26.3335   21.0305  -27.4666 C   0  0  0  0  0  0  0  0  0  0  0  0
  1  2  1  0
  3  2  1  1
  3  4  1  0
  4  5  1  6
  5  6  1  0
  5  7  1  0
  7  8  2  0
  7  9  1  0
  9 10  2  0
 10 11  1  0
 11 12  2  0
 12 13  1  0
 13 14  2  0
  4 15  1  0
 16 15  1  6
 16 17  1  0
 17 18  1  0
 18 19  1  6
 18 20  1  0
 20 21  1  0
 21 22  2  0
 22 23  1  0
 23 24  2  0
 24 25  1  0
 25 26  2  0
 26 27  1  0
 27 28  2  0
 28 29  1  0
 29 30  2  0
 30 31  1  0
 31 32  2  0
 32 33  1  0
 33 34  2  0
 34 35  1  0
 35 36  2  0
 36 37  1  0
 37 38  1  0
 38 39  2  0
 29 40  1  0
 40 41  2  0
 40 42  1  0
 42 43  1  0
 18  3  1  0
 39 20  1  0
 14  9  1  0
 37 16  1  0
 26 21  1  0
 39 27  1  0
 43 28  1  0
 38 30  1  0
 36 31  1  0
M  END
$$$$
