
     RDKit          3D

 32 34  0  0  0  0  0  0  0  0999 V2000
  -17.1739   40.7524  -20.0206 O   0  0  0  0  0  0  0  0  0  0  0  0
  -17.7853   41.0241  -21.0733 C   0  0  0  0  0  0  0  0  0  0  0  0
  -18.5861   39.9203  -21.6336 C   0  0  0  0  0  0  0  0  0  0  0  0
  -18.6161   38.6902  -20.9881 C   0  0  0  0  0  0  0  0  0  0  0  0
  -17.8968   38.5031  -19.8266 O   0  0  0  0  0  0  0  0  0  0  0  0
  -19.3527   37.6442  -21.4840 C   0  0  0  0  0  0  0  0  0  0  0  0
  -20.0643   37.8513  -22.6458 C   0  0  0  0  0  0  0  0  0  0  0  0
  -20.0273   39.0938  -23.2882 C   0  0  0  0  0  0  0  0  0  0  0  0
  -20.7388   39.3158  -24.4577 O   0  0  0  0  0  0  0  0  0  0  0  0
  -19.2794   40.1519  -22.7829 C   0  0  0  0  0  0  0  0  0  0  0  0
  -19.2545   41.4493  -23.4719 C   0  0  0  0  0  0  0  0  0  0  0  0
  -19.9430   41.5245  -24.5259 O   0  0  0  0  0  0  0  0  0  0  0  0
  -18.4618   42.5230  -22.9067 C   0  0  0  0  0  0  0  0  0  0  0  0
  -18.4372   43.7253  -23.5259 C   0  0  0  0  0  0  0  0  0  0  0  0
  -19.1374   43.9904  -24.7219 N   0  0  0  0  0  0  0  0  0  0  0  0
  -20.0322   45.1648  -24.7482 C   0  0  0  0  0  0  0  0  0  0  0  0
  -21.0435   45.1207  -23.6234 C   0  0  0  0  0  0  0  0  0  0  0  0
  -22.3268   44.7391  -24.1231 N   0  0  0  0  0  0  0  0  0  0  0  0
  -22.9652   45.7523  -24.9019 C   0  0  0  0  0  0  0  0  0  0  0  0
  -23.2873   45.2433  -26.3019 C   0  0  0  0  0  0  0  0  0  0  0  0
  -24.6701   45.2495  -26.5010 O   0  0  0  0  0  0  0  0  0  0  0  0
  -17.6717   44.7454  -22.9539 C   0  0  0  0  0  0  0  0  0  0  0  0
  -16.9660   44.5481  -21.8071 C   0  0  0  0  0  0  0  0  0  0  0  0
  -16.9805   43.3115  -21.1537 C   0  0  0  0  0  0  0  0  0  0  0  0
  -16.2045   43.1648  -20.0047 N   0  0  0  0  0  0  0  0  0  0  0  0
  -15.3289   44.2071  -19.4731 C   0  0  0  0  0  0  0  0  0  0  0  0
  -14.5634   43.8146  -18.2623 C   0  0  0  0  0  0  0  0  0  0  0  0
  -13.5439   42.8385  -18.6514 N   0  0  0  0  0  0  0  0  0  0  0  0
  -12.2485   43.1295  -18.1068 C   0  0  0  0  0  0  0  0  0  0  0  0
  -11.8158   41.9134  -17.3086 C   0  0  0  0  0  0  0  0  0  0  0  0
  -11.3716   40.8767  -18.1116 O   0  0  0  0  0  0  0  0  0  0  0  0
  -17.7339   42.3204  -21.7232 C   0  0  0  0  0  0  0  0  0  0  0  0
  1  2  2  0
  2  3  1  0
  3  4  2  0
  4  5  1  0
  4  6  1  0
  6  7  2  0
  7  8  1  0
  8  9  1  0
  8 10  2  0
 10 11  1  0
 11 12  2  0
 11 13  1  0
 13 14  2  0
 14 15  1  0
 15 16  1  0
 16 17  1  0
 17 18  1  0
 18 19  1  0
 19 20  1  0
 20 21  1  0
 14 22  1  0
 22 23  2  0
 23 24  1  0
 24 25  1  0
 25 26  1  0
 26 27  1  0
 27 28  1  0
 28 29  1  0
 29 30  1  0
 30 31  1  0
 24 32  2  0
 32  2  1  0
 10  3  1  0
 32 13  1  0
M  END
$$$$
