
     RDKit          3D

 12 13  0  0  0  0  0  0  0  0999 V2000
  -31.9006   20.3142  -28.8620 O   0  0  0  0  0  0  0  0  0  0  0  0
  -30.9053   19.6325  -28.4866 C   0  0  0  0  0  0  0  0  0  0  0  0
  -31.0500   18.3570  -28.1789 O   0  0  0  0  0  0  0  0  0  0  0  0
  -30.0333   17.6177  -27.7841 C   0  0  0  0  0  0  0  0  0  0  0  0
  -30.2550   16.2901  -27.4779 C   0  0  0  0  0  0  0  0  0  0  0  0
  -29.1777   15.5321  -27.0662 C   0  0  0  0  0  0  0  0  0  0  0  0
  -27.8972   16.0314  -26.9458 C   0  0  0  0  0  0  0  0  0  0  0  0
  -27.7025   17.3645  -27.2588 C   0  0  0  0  0  0  0  0  0  0  0  0
  -28.7564   18.1541  -27.6742 C   0  0  0  0  0  0  0  0  0  0  0  0
  -28.5744   19.4719  -27.9856 C   0  0  0  0  0  0  0  0  0  0  0  0
  -29.6544   20.2128  -28.3933 C   0  0  0  0  0  0  0  0  0  0  0  0
  -29.5502   21.5570  -28.7270 O   0  0  0  0  0  0  0  0  0  0  0  0
  1  2  2  0
  2  3  1  0
  3  4  1  0
  4  5  2  0
  5  6  1  0
  6  7  2  0
  7  8  1  0
  8  9  2  0
  9 10  1  0
 10 11  2  0
 11 12  1  0
 11  2  1  0
  9  4  1  0
M  END
$$$$
