
     RDKit          3D

 27 29  0  0  0  0  0  0  0  0999 V2000
  -21.0302   -0.4271  -22.1780 C   0  0  0  0  0  0  0  0  0  0  0  0
  -20.1854   -1.5115  -21.9142 O   0  0  0  0  0  0  0  0  0  0  0  0
  -18.9056   -1.6447  -22.4021 C   0  0  0  0  0  0  0  0  0  0  0  0
  -18.1524   -0.6415  -22.2802 O   0  0  0  0  0  0  0  0  0  0  0  0
  -18.4386   -2.9052  -23.0385 C   0  0  0  0  0  0  0  0  0  0  0  0
  -18.8553   -4.0441  -22.5298 C   0  0  0  0  0  0  0  0  0  0  0  0
  -19.7700   -4.0783  -21.3486 C   0  0  0  0  0  0  0  0  0  0  0  0
  -18.4659   -5.2932  -23.0686 N   0  0  0  0  0  0  0  0  0  0  0  0
  -17.5929   -5.2880  -24.1993 C   0  0  0  0  0  0  0  0  0  0  0  0
  -17.1671   -6.5842  -24.7870 C   0  0  0  0  0  0  0  0  0  0  0  0
  -17.1561   -4.1743  -24.7344 C   0  0  0  0  0  0  0  0  0  0  0  0
  -16.2510   -4.1781  -25.9073 C   0  0  0  0  0  0  0  0  0  0  0  0
  -15.3910   -5.0846  -26.0634 O   0  0  0  0  0  0  0  0  0  0  0  0
  -16.2852   -3.2130  -26.8872 O   0  0  0  0  0  0  0  0  0  0  0  0
  -15.4627   -3.2120  -28.0272 C   0  0  0  0  0  0  0  0  0  0  0  0
  -16.0485   -3.9094  -29.2062 C   0  0  0  0  0  0  0  0  0  0  0  0
  -14.0729   -3.7403  -27.7039 C   0  0  0  0  0  0  0  0  0  0  0  0
  -17.5436   -2.8526  -24.1929 C   0  0  0  0  0  0  0  0  0  0  0  0
  -16.3283   -2.0526  -23.8519 C   0  0  0  0  0  0  0  0  0  0  0  0
  -15.2727   -2.6012  -23.1798 C   0  0  0  0  0  0  0  0  0  0  0  0
  -14.1835   -1.8197  -22.8641 C   0  0  0  0  0  0  0  0  0  0  0  0
  -14.1330   -0.4884  -23.2117 C   0  0  0  0  0  0  0  0  0  0  0  0
  -15.1996    0.0527  -23.8863 C   0  0  0  0  0  0  0  0  0  0  0  0
  -15.4351    1.2740  -24.3430 N   0  0  0  0  0  0  0  0  0  0  0  0
  -16.5845    1.2632  -24.9040 O   0  0  0  0  0  0  0  0  0  0  0  0
  -17.1531    0.0975  -24.8573 N   0  0  0  0  0  0  0  0  0  0  0  0
  -16.2844   -0.7252  -24.2012 C   0  0  0  0  0  0  0  0  0  0  0  0
  1  2  1  0
  2  3  1  0
  3  4  2  0
  3  5  1  0
  5  6  2  0
  6  7  1  0
  6  8  1  0
  8  9  1  0
  9 10  1  0
  9 11  2  0
 11 12  1  0
 12 13  2  0
 12 14  1  0
 14 15  1  0
 15 16  1  0
 15 17  1  0
 11 18  1  0
 18 19  1  0
 19 20  2  0
 20 21  1  0
 21 22  2  0
 22 23  1  0
 23 24  2  0
 24 25  1  0
 25 26  1  0
 26 27  2  0
 18  5  1  0
 27 19  1  0
 27 23  1  0
M  END
$$$$
