
     RDKit          3D

 11 12  0  0  0  0  0  0  0  0999 V2000
  -21.3741   34.4757  -22.5359 O   0  0  0  0  0  0  0  0  0  0  0  0
  -20.2522   35.0404  -22.5118 C   0  0  0  0  0  0  0  0  0  0  0  0
  -19.1057   34.2840  -22.6444 C   0  0  0  0  0  0  0  0  0  0  0  0
  -17.9006   34.9577  -22.6106 C   0  0  0  0  0  0  0  0  0  0  0  0
  -17.8835   36.3355  -22.4487 C   0  0  0  0  0  0  0  0  0  0  0  0
  -16.6892   37.0226  -22.4129 C   0  0  0  0  0  0  0  0  0  0  0  0
  -16.6949   38.3990  -22.2503 C   0  0  0  0  0  0  0  0  0  0  0  0
  -17.8615   39.1211  -22.1210 C   0  0  0  0  0  0  0  0  0  0  0  0
  -19.0597   38.4251  -22.1577 C   0  0  0  0  0  0  0  0  0  0  0  0
  -19.0570   37.0546  -22.3195 C   0  0  0  0  0  0  0  0  0  0  0  0
  -20.2224   36.3824  -22.3546 N   0  0  0  0  0  0  0  0  0  0  0  0
  1  2  2  0
  2  3  1  0
  3  4  2  0
  4  5  1  0
  5  6  2  0
  6  7  1  0
  7  8  2  0
  8  9  1  0
  9 10  2  0
 10 11  1  0
 11  2  1  0
 10  5  1  0
M  END
$$$$
