
     RDKit          3D

 30 33  0  0  0  0  0  0  0  0999 V2000
  -27.3711   12.4710  -29.7132 C   0  0  0  0  0  0  0  0  0  0  0  0
  -27.0761   13.6870  -30.5214 C   0  0  0  0  0  0  0  0  0  0  0  0
  -25.8237   14.2620  -30.2533 O   0  0  0  0  0  0  0  0  0  0  0  0
  -25.0738   15.0269  -31.0870 C   0  0  0  0  0  0  0  0  0  0  0  0
  -25.5555   16.2518  -31.4870 C   0  0  0  0  0  0  0  0  0  0  0  0
  -24.8491   17.0830  -32.3329 C   0  0  0  0  0  0  0  0  0  0  0  0
  -23.5925   16.6695  -32.8060 C   0  0  0  0  0  0  0  0  0  0  0  0
  -22.7201   17.2208  -33.5919 O   0  0  0  0  0  0  0  0  0  0  0  0
  -21.6429   16.4157  -33.7524 C   0  0  0  0  0  0  0  0  0  0  0  0
  -20.5136   16.8045  -34.5898 C   0  0  0  0  0  0  0  0  0  0  0  0
  -19.5037   16.0046  -34.6374 O   0  0  0  0  0  0  0  0  0  0  0  0
  -20.4483   17.9695  -35.3320 N   0  0  0  0  0  0  0  0  0  0  0  0
  -19.3280   18.5837  -35.9788 C   0  0  1  0  0  0  0  0  0  0  0  0
  -19.5783   20.0039  -36.4886 C   0  0  0  0  0  0  0  0  0  0  0  0
  -18.5082   20.5113  -37.3897 C   0  0  0  0  0  0  0  0  0  0  0  0
  -19.0515   22.1534  -37.9880 S   0  0  0  0  0  0  0  0  0  0  0  0
  -17.7045   22.8047  -39.0298 C   0  0  0  0  0  0  0  0  0  0  0  0
  -18.0426   18.4586  -35.3004 C   0  0  0  0  0  0  0  0  0  0  0  0
  -16.9223   17.9549  -35.8450 N   0  0  0  0  0  0  0  0  0  0  0  0
  -15.9155   17.9811  -34.9556 C   0  0  0  0  0  0  0  0  0  0  0  0
  -14.5950   17.5890  -35.0173 C   0  0  0  0  0  0  0  0  0  0  0  0
  -13.7831   17.7486  -33.9017 C   0  0  0  0  0  0  0  0  0  0  0  0
  -14.2914   18.2882  -32.7588 C   0  0  0  0  0  0  0  0  0  0  0  0
  -15.6163   18.6823  -32.6951 C   0  0  0  0  0  0  0  0  0  0  0  0
  -16.4326   18.5262  -33.8041 C   0  0  0  0  0  0  0  0  0  0  0  0
  -17.7171   18.8042  -34.0423 N   0  0  0  0  0  0  0  0  0  0  0  0
  -21.8593   15.3043  -33.0246 C   0  0  0  0  0  0  0  0  0  0  0  0
  -21.0169   14.1071  -32.8058 C   0  0  0  0  0  0  0  0  0  0  0  0
  -23.1041   15.4515  -32.4134 C   0  0  0  0  0  0  0  0  0  0  0  0
  -23.8415   14.6374  -31.5597 C   0  0  0  0  0  0  0  0  0  0  0  0
  1  2  1  0
  2  3  1  0
  3  4  1  0
  4  5  2  0
  5  6  1  0
  6  7  2  0
  7  8  1  0
  8  9  1  0
  9 10  1  0
 10 11  2  0
 10 12  1  0
 12 13  1  0
 13 14  1  1
 14 15  1  0
 15 16  1  0
 16 17  1  0
 13 18  1  0
 18 19  2  0
 19 20  1  0
 20 21  2  0
 21 22  1  0
 22 23  2  0
 23 24  1  0
 24 25  2  0
 25 26  1  0
  9 27  2  0
 27 28  1  0
 27 29  1  0
 29 30  2  0
 30  4  1  0
 29  7  1  0
 26 18  1  0
 25 20  1  0
M  END
$$$$
