
     RDKit          3D

 31 36  0  0  0  0  0  0  0  0999 V2000
   -8.8545    8.9666  -45.2142 C   0  0  0  0  0  0  0  0  0  0  0  0
   -8.3279    7.7591  -44.6933 O   0  0  0  0  0  0  0  0  0  0  0  0
   -7.2749    7.6850  -43.8347 C   0  0  0  0  0  0  0  0  0  0  0  0
   -7.1458    8.6306  -42.8408 C   0  0  0  0  0  0  0  0  0  0  0  0
   -6.0772    8.5468  -41.9825 C   0  0  0  0  0  0  0  0  0  0  0  0
   -5.1401    7.5540  -42.0867 C   0  0  0  0  0  0  0  0  0  0  0  0
   -4.0052    7.4760  -41.1618 C   0  0  0  0  0  0  0  0  0  0  0  0
   -4.1446    7.9292  -39.8655 C   0  0  0  0  0  0  0  0  0  0  0  0
   -3.0643    7.8515  -39.0047 C   0  0  0  0  0  0  0  0  0  0  0  0
   -1.8543    7.3319  -39.4140 C   0  0  0  0  0  0  0  0  0  0  0  0
   -0.7657    7.2503  -38.5586 C   0  0  0  0  0  0  0  0  0  0  0  0
    0.4573    6.7215  -38.9853 C   0  0  0  0  0  0  0  0  0  0  0  0
    1.5844    6.6440  -38.0812 C   0  0  0  0  0  0  0  0  0  0  0  0
    2.7093    6.3412  -38.5288 O   0  0  0  0  0  0  0  0  0  0  0  0
    1.4283    6.9000  -36.7389 O   0  0  0  0  0  0  0  0  0  0  0  0
    0.5969    6.2687  -40.2798 C   0  0  0  0  0  0  0  0  0  0  0  0
   -0.4826    6.3484  -41.1320 C   0  0  0  0  0  0  0  0  0  0  0  0
   -1.7040    6.8745  -40.7122 C   0  0  0  0  0  0  0  0  0  0  0  0
   -2.7832    6.9544  -41.5649 C   0  0  0  0  0  0  0  0  0  0  0  0
   -5.2996    6.6203  -43.0960 C   0  0  0  0  0  0  0  0  0  0  0  0
   -6.3581    6.6533  -43.9914 C   0  0  0  0  0  0  0  0  0  0  0  0
   -6.4351    5.6142  -45.0196 C   0  0  0  0  0  0  0  0  0  0  0  0
   -6.1943    6.2673  -46.3852 C   0  0  0  0  0  0  0  0  0  0  0  0
   -6.2613    5.2116  -47.4913 C   0  0  0  0  0  0  0  0  0  0  0  0
   -7.6301    4.6174  -47.4817 C   0  0  0  0  0  0  0  0  0  0  0  0
   -7.9465    3.9928  -46.1387 C   0  0  0  0  0  0  0  0  0  0  0  0
   -6.9609    2.8896  -45.8510 C   0  0  0  0  0  0  0  0  0  0  0  0
   -5.5829    3.4920  -45.9129 C   0  0  0  0  0  0  0  0  0  0  0  0
   -5.2671    4.1170  -47.2499 C   0  0  0  0  0  0  0  0  0  0  0  0
   -5.3737    4.5551  -44.8653 C   0  0  0  0  0  0  0  0  0  0  0  0
   -7.8218    5.0143  -45.0215 C   0  0  0  0  0  0  0  0  0  0  0  0
  1  2  1  0
  2  3  1  0
  3  4  2  0
  4  5  1  0
  5  6  2  0
  6  7  1  0
  7  8  2  0
  8  9  1  0
  9 10  2  0
 10 11  1  0
 11 12  2  0
 12 13  1  0
 13 14  2  0
 13 15  1  0
 12 16  1  0
 16 17  2  0
 17 18  1  0
 18 19  2  0
  6 20  1  0
 20 21  2  0
 21 22  1  0
 22 23  1  0
 23 24  1  0
 24 25  1  0
 25 26  1  0
 26 27  1  0
 27 28  1  0
 28 29  1  0
 28 30  1  0
 26 31  1  0
 21  3  1  0
 30 22  1  0
 19  7  1  0
 31 22  1  0
 18 10  1  0
 29 24  1  0
M  END
$$$$
