
     RDKit          3D

 29 31  0  0  0  0  0  0  0  0999 V2000
  -15.4852   16.1706  -34.2096 C   0  0  0  0  0  0  0  0  0  0  0  0
  -15.3028   16.8205  -35.5247 C   0  0  0  0  0  0  0  0  0  0  0  0
  -14.0339   16.9770  -36.0327 C   0  0  0  0  0  0  0  0  0  0  0  0
  -13.8695   17.5894  -37.2708 C   0  0  0  0  0  0  0  0  0  0  0  0
  -14.9821   18.0259  -37.9613 C   0  0  0  0  0  0  0  0  0  0  0  0
  -14.7784   18.6562  -39.2410 N   0  0  0  0  0  0  0  0  0  0  0  0
  -13.8725   18.0725  -40.1534 C   0  0  0  0  0  0  0  0  0  0  0  0
  -13.1784   17.0888  -39.7212 O   0  0  0  0  0  0  0  0  0  0  0  0
  -13.7057   18.5387  -41.5311 C   0  0  0  0  0  0  0  0  0  0  0  0
  -14.4869   19.5340  -42.0662 C   0  0  0  0  0  0  0  0  0  0  0  0
  -14.3075   19.9629  -43.3884 C   0  0  0  0  0  0  0  0  0  0  0  0
  -13.3445   19.4032  -44.1955 C   0  0  0  0  0  0  0  0  0  0  0  0
  -12.5621   18.4040  -43.6544 C   0  0  0  0  0  0  0  0  0  0  0  0
  -11.5663   17.8306  -44.5012 N   0  0  0  0  0  0  0  0  0  0  0  0
  -11.2946   18.3282  -45.8302 C   0  0  0  0  0  0  0  0  0  0  0  0
  -10.8170   16.7083  -43.9774 C   0  0  0  0  0  0  0  0  0  0  0  0
  -12.7456   17.9896  -42.3551 C   0  0  0  0  0  0  0  0  0  0  0  0
  -16.2399   17.8538  -37.4240 C   0  0  0  0  0  0  0  0  0  0  0  0
  -16.4363   17.2466  -36.1912 C   0  0  0  0  0  0  0  0  0  0  0  0
  -17.7311   17.0638  -35.6270 N   0  0  0  0  0  0  0  0  0  0  0  0
  -18.2940   15.7617  -35.5763 C   0  0  0  0  0  0  0  0  0  0  0  0
  -17.5481   14.7993  -35.8277 O   0  0  0  0  0  0  0  0  0  0  0  0
  -19.6981   15.5571  -35.2413 C   0  0  0  0  0  0  0  0  0  0  0  0
  -20.7195   15.7980  -36.1111 C   0  0  0  0  0  0  0  0  0  0  0  0
  -22.0661   15.6022  -35.7910 C   0  0  0  0  0  0  0  0  0  0  0  0
  -22.3806   15.1424  -34.5333 C   0  0  0  0  0  0  0  0  0  0  0  0
  -23.6987   14.9279  -34.1547 O   0  0  0  0  0  0  0  0  0  0  0  0
  -21.3434   14.8955  -33.6436 C   0  0  0  0  0  0  0  0  0  0  0  0
  -20.0244   15.0956  -33.9808 C   0  0  0  0  0  0  0  0  0  0  0  0
  1  2  1  0
  2  3  2  0
  3  4  1  0
  4  5  2  0
  5  6  1  0
  6  7  1  0
  7  8  2  0
  7  9  1  0
  9 10  2  0
 10 11  1  0
 11 12  2  0
 12 13  1  0
 13 14  1  0
 14 15  1  0
 14 16  1  0
 13 17  2  0
  5 18  1  0
 18 19  2  0
 19 20  1  0
 20 21  1  0
 21 22  2  0
 21 23  1  0
 23 24  2  0
 24 25  1  0
 25 26  2  0
 26 27  1  0
 26 28  1  0
 28 29  2  0
 19  2  1  0
 29 23  1  0
 17  9  1  0
M  END
$$$$
