
     RDKit          3D

 33 36  0  0  0  0  0  0  0  0999 V2000
  -29.9134   23.7683  -29.6967 C   0  0  0  0  0  0  0  0  0  0  0  0
  -30.1446   22.3792  -29.5062 O   0  0  0  0  0  0  0  0  0  0  0  0
  -29.1385   21.4534  -29.4275 C   0  0  0  0  0  0  0  0  0  0  0  0
  -28.1337   21.6709  -28.5144 C   0  0  0  0  0  0  0  0  0  0  0  0
  -27.1164   20.7348  -28.4355 C   0  0  0  0  0  0  0  0  0  0  0  0
  -27.1616   19.6325  -29.2745 C   0  0  0  0  0  0  0  0  0  0  0  0
  -26.0499   18.6303  -29.1730 C   0  0  0  0  0  0  0  0  0  0  0  0
  -25.9752   18.1242  -27.8153 N   0  0  0  0  0  0  0  0  0  0  0  0
  -26.8984   17.1759  -27.2999 C   0  0  0  0  0  0  0  0  0  0  0  0
  -27.8906   16.8874  -28.0175 O   0  0  0  0  0  0  0  0  0  0  0  0
  -26.7313   16.5455  -25.9960 C   0  0  0  0  0  0  0  0  0  0  0  0
  -25.4804   16.1569  -25.5810 C   0  0  0  0  0  0  0  0  0  0  0  0
  -25.2727   15.5585  -24.3565 C   0  0  0  0  0  0  0  0  0  0  0  0
  -23.9550   15.1420  -23.9080 C   0  0  0  0  0  0  0  0  0  0  0  0
  -23.8043   13.9888  -23.1665 C   0  0  0  0  0  0  0  0  0  0  0  0
  -22.5865   13.5753  -22.7350 N   0  0  0  0  0  0  0  0  0  0  0  0
  -21.4746   14.2739  -23.0127 C   0  0  0  0  0  0  0  0  0  0  0  0
  -21.5957   15.4281  -23.7508 C   0  0  0  0  0  0  0  0  0  0  0  0
  -20.1977   16.3864  -24.1504 Cl  0  0  0  0  0  0  0  0  0  0  0  0
  -22.8195   15.8672  -24.1990 C   0  0  0  0  0  0  0  0  0  0  0  0
  -26.3643   15.3549  -23.5441 C   0  0  0  0  0  0  0  0  0  0  0  0
  -27.5794   15.7324  -23.9482 N   0  0  0  0  0  0  0  0  0  0  0  0
  -27.7967   16.3175  -25.1404 C   0  0  0  0  0  0  0  0  0  0  0  0
  -29.1547   16.7097  -25.5310 C   0  0  0  0  0  0  0  0  0  0  0  0
  -29.3167   17.7470  -26.4012 C   0  0  0  0  0  0  0  0  0  0  0  0
  -30.5863   18.1358  -26.7836 C   0  0  0  0  0  0  0  0  0  0  0  0
  -31.6306   17.4228  -26.2385 C   0  0  0  0  0  0  0  0  0  0  0  0
  -31.4366   16.3733  -25.3569 C   0  0  0  0  0  0  0  0  0  0  0  0
  -30.1857   16.0499  -25.0302 N   0  0  0  0  0  0  0  0  0  0  0  0
  -28.1603   19.4513  -30.1563 N   0  0  0  0  0  0  0  0  0  0  0  0
  -29.1640   20.3459  -30.2559 C   0  0  0  0  0  0  0  0  0  0  0  0
  -30.2201   20.2262  -31.1360 O   0  0  0  0  0  0  0  0  0  0  0  0
  -30.4932   19.1354  -31.9620 C   0  0  0  0  0  0  0  0  0  0  0  0
  1  2  1  0
  2  3  1  0
  3  4  2  0
  4  5  1  0
  5  6  2  0
  6  7  1  0
  7  8  1  0
  8  9  1  0
  9 10  2  0
  9 11  1  0
 11 12  2  0
 12 13  1  0
 13 14  1  0
 14 15  2  0
 15 16  1  0
 16 17  2  0
 17 18  1  0
 18 19  1  0
 18 20  2  0
 13 21  2  0
 21 22  1  0
 22 23  2  0
 23 24  1  0
 24 25  2  0
 25 26  1  0
 26 27  2  0
 27 28  1  0
 28 29  2  0
  6 30  1  0
 30 31  2  0
 31 32  1  0
 32 33  1  0
 31  3  1  0
 23 11  1  0
 29 24  1  0
 20 14  1  0
M  END
$$$$
