
     RDKit          3D

 12 12  0  0  0  0  0  0  0  0999 V2000
  -17.8815   39.9377  -21.5717 C   0  0  0  0  0  0  0  0  0  0  0  0
  -18.3469   39.0937  -22.7482 C   0  0  0  0  0  0  0  0  0  0  0  0
  -17.3913   39.3314  -23.9149 C   0  0  0  0  0  0  0  0  0  0  0  0
  -18.2448   37.6328  -22.4203 C   0  0  0  0  0  0  0  0  0  0  0  0
  -17.0770   37.1712  -21.8878 C   0  0  0  0  0  0  0  0  0  0  0  0
  -16.7102   35.8818  -21.4956 C   0  0  0  0  0  0  0  0  0  0  0  0
  -17.4027   34.7190  -21.7694 C   0  0  0  0  0  0  0  0  0  0  0  0
  -18.7164   34.5481  -22.1815 C   0  0  0  0  0  0  0  0  0  0  0  0
  -19.1586   33.3761  -22.2972 O   0  0  0  0  0  0  0  0  0  0  0  0
  -19.6048   35.5594  -22.4836 C   0  0  0  0  0  0  0  0  0  0  0  0
  -20.9498   35.2165  -22.5893 O   0  0  0  0  0  0  0  0  0  0  0  0
  -19.3903   36.9233  -22.7124 C   0  0  0  0  0  0  0  0  0  0  0  0
  1  2  1  0
  2  3  1  0
  2  4  1  0
  4  5  2  0
  5  6  1  0
  6  7  2  0
  7  8  1  0
  8  9  2  0
  8 10  1  0
 10 11  1  0
 10 12  2  0
 12  4  1  0
M  END
$$$$
