
     RDKit          3D

 30 33  0  0  0  0  0  0  0  0999 V2000
  -17.4948   -1.5297  -32.5370 C   0  0  0  0  0  0  0  0  0  0  0  0
  -16.6799   -0.2960  -32.3359 C   0  0  0  0  0  0  0  0  0  0  0  0
  -17.0378    0.9274  -32.5338 O   0  0  0  0  0  0  0  0  0  0  0  0
  -16.0780    1.7426  -32.2575 N   0  0  0  0  0  0  0  0  0  0  0  0
  -14.9733    1.0403  -31.8373 C   0  0  0  0  0  0  0  0  0  0  0  0
  -13.7254    1.6453  -31.4468 C   0  0  0  0  0  0  0  0  0  0  0  0
  -13.4087    2.0474  -30.1754 C   0  0  0  0  0  0  0  0  0  0  0  0
  -12.1945    2.6251  -29.8424 C   0  0  0  0  0  0  0  0  0  0  0  0
  -11.2323    2.8218  -30.8062 C   0  0  0  0  0  0  0  0  0  0  0  0
  -11.5259    2.4261  -32.0910 C   0  0  0  0  0  0  0  0  0  0  0  0
  -12.7423    1.8519  -32.4034 C   0  0  0  0  0  0  0  0  0  0  0  0
  -13.0625    1.3657  -34.0647 Cl  0  0  0  0  0  0  0  0  0  0  0  0
  -15.3492   -0.2644  -31.8840 C   0  0  0  0  0  0  0  0  0  0  0  0
  -14.5958   -1.4442  -31.5526 C   0  0  0  0  0  0  0  0  0  0  0  0
  -14.5879   -1.8323  -30.3567 O   0  0  0  0  0  0  0  0  0  0  0  0
  -13.8655   -2.1762  -32.5175 N   0  0  0  0  0  0  0  0  0  0  0  0
  -13.0169   -3.2880  -32.1756 C   0  0  0  0  0  0  0  0  0  0  0  0
  -13.1713   -4.4535  -33.0931 C   0  0  0  0  0  0  0  0  0  0  0  0
  -13.6128   -4.1469  -34.4234 N   0  0  0  0  0  0  0  0  0  0  0  0
  -13.1467   -4.8523  -35.5775 C   0  0  0  0  0  0  0  0  0  0  0  0
  -12.3871   -5.9919  -35.3811 C   0  0  0  0  0  0  0  0  0  0  0  0
  -11.9363   -6.7055  -36.4950 C   0  0  0  0  0  0  0  0  0  0  0  0
  -12.2384   -6.2878  -37.7690 C   0  0  0  0  0  0  0  0  0  0  0  0
  -11.7879   -7.0008  -38.9238 N   0  0  0  0  0  4  0  0  0  0  0  0
  -10.9017   -7.8523  -38.7894 O   0  0  0  0  0  0  0  0  0  0  0  0
  -12.3003   -6.7759  -40.1747 O   0  0  0  0  0  1  0  0  0  0  0  0
  -12.9986   -5.1477  -37.9863 C   0  0  0  0  0  0  0  0  0  0  0  0
  -13.4286   -4.4664  -36.8717 C   0  0  0  0  0  0  0  0  0  0  0  0
  -14.5596   -3.0744  -34.6217 C   0  0  0  0  0  0  0  0  0  0  0  0
  -13.9691   -1.8280  -33.9470 C   0  0  0  0  0  0  0  0  0  0  0  0
  1  2  1  0
  2  3  1  0
  3  4  1  0
  4  5  2  0
  5  6  1  0
  6  7  2  0
  7  8  1  0
  8  9  2  0
  9 10  1  0
 10 11  2  0
 11 12  1  0
  5 13  1  0
 13 14  1  0
 14 15  2  0
 14 16  1  0
 16 17  1  0
 17 18  1  0
 18 19  1  0
 19 20  1  0
 20 21  2  0
 21 22  1  0
 22 23  2  0
 23 24  1  0
 24 25  2  0
 24 26  1  0
 23 27  1  0
 27 28  2  0
 19 29  1  0
 29 30  1  0
 13  2  2  0
 30 16  1  0
 11  6  1  0
 28 20  1  0
M  CHG  2  24   1  26  -1
M  END
$$$$
