
     RDKit          3D

 44 47  0  0  0  0  0  0  0  0999 V2000
  -33.8666   16.2382  -26.2028 C   0  0  0  0  0  0  0  0  0  0  0  0
  -33.6431   16.4999  -27.6688 C   0  0  0  0  0  0  0  0  0  0  0  0
  -32.3503   16.1196  -28.1466 N   0  0  0  0  0  0  0  0  0  0  0  0
  -31.2549   16.9592  -27.7360 C   0  0  0  0  0  0  0  0  0  0  0  0
  -31.1783   18.2960  -28.0229 C   0  0  0  0  0  0  0  0  0  0  0  0
  -30.0766   19.0946  -27.6499 C   0  0  0  0  0  0  0  0  0  0  0  0
  -30.1057   20.4822  -27.9530 C   0  0  0  0  0  0  0  0  0  0  0  0
  -30.1271   21.6765  -28.2049 C   0  0  0  0  0  0  0  0  0  0  0  0
  -30.1586   23.1257  -28.5367 C   0  0  0  0  0  0  0  0  0  0  0  0
  -28.9490   23.5057  -29.1597 N   0  0  0  0  0  0  0  0  0  0  0  0
  -28.3671   22.6052  -30.0856 C   0  0  0  0  0  0  0  0  0  0  0  0
  -28.2338   23.3027  -31.4366 C   0  0  0  0  0  0  0  0  0  0  0  0
  -27.4049   24.4069  -31.3808 O   0  0  0  0  0  0  0  0  0  0  0  0
  -27.4658   25.0853  -30.1725 C   0  0  0  0  0  0  0  0  0  0  0  0
  -28.8528   24.8544  -29.5912 C   0  0  0  0  0  0  0  0  0  0  0  0
  -29.0371   18.4667  -26.9640 C   0  0  0  0  0  0  0  0  0  0  0  0
  -29.0958   17.1544  -26.6720 C   0  0  0  0  0  0  0  0  0  0  0  0
  -28.0348   16.4233  -25.9600 C   0  0  0  0  0  0  0  0  0  0  0  0
  -26.8431   16.4842  -26.4278 O   0  0  0  0  0  0  0  0  0  0  0  0
  -28.2635   15.6497  -24.7969 N   0  0  0  0  0  0  0  0  0  0  0  0
  -27.1710   14.9429  -24.2297 C   0  0  0  0  0  0  0  0  0  0  0  0
  -27.4458   14.1440  -23.0438 C   0  0  0  0  0  0  0  0  0  0  0  0
  -27.9399   12.8693  -23.1601 C   0  0  0  0  0  0  0  0  0  0  0  0
  -28.2711   12.3015  -24.5021 C   0  0  0  0  0  0  0  0  0  0  0  0
  -28.1720   12.0589  -22.0587 C   0  0  0  0  0  0  0  0  0  0  0  0
  -27.8849   12.5772  -20.7892 C   0  0  0  0  0  0  0  0  0  0  0  0
  -28.1388   11.6846  -19.6431 C   0  0  0  0  0  0  0  0  0  0  0  0
  -27.4120   13.8086  -20.7182 N   0  0  0  0  0  0  0  0  0  0  0  0
  -27.1721   14.6292  -21.7577 C   0  0  0  0  0  0  0  0  0  0  0  0
  -26.7223   15.7921  -21.6712 O   0  0  0  0  0  0  0  0  0  0  0  0
  -30.2225   16.3844  -27.0618 C   0  0  0  0  0  0  0  0  0  0  0  0
  -30.2518   14.9732  -26.6807 C   0  0  0  0  0  0  0  0  0  0  0  0
  -32.1555   14.9722  -28.9917 C   0  0  1  0  0  0  0  0  0  0  0  0
  -32.1243   13.6670  -28.2568 C   0  0  0  0  0  0  0  0  0  0  0  0
  -31.8501   12.5338  -29.2601 C   0  0  0  0  0  0  0  0  0  0  0  0
  -33.0674   12.5129  -30.1613 C   0  0  2  0  0  0  0  0  0  0  0  0
  -33.2586   11.3614  -30.9435 N   0  0  0  0  0  0  0  0  0  0  0  0
  -34.5805   10.9074  -31.1705 C   0  0  0  0  0  0  0  0  0  0  0  0
  -32.2999   10.3650  -30.5445 C   0  0  0  0  0  0  0  0  0  0  0  0
  -32.6352    8.9639  -30.9153 C   0  0  0  0  0  0  0  0  0  0  0  0
  -32.1290    8.6374  -32.1485 O   0  0  0  0  0  0  0  0  0  0  0  0
  -30.8581    8.1196  -32.0792 C   0  0  0  0  0  0  0  0  0  0  0  0
  -32.9488   13.7980  -30.9889 C   0  0  0  0  0  0  0  0  0  0  0  0
  -33.3091   14.8934  -30.0015 C   0  0  0  0  0  0  0  0  0  0  0  0
  1  2  1  0
  2  3  1  0
  3  4  1  0
  4  5  2  0
  5  6  1  0
  6  7  1  0
  7  8  3  0
  8  9  1  0
  9 10  1  0
 10 11  1  0
 11 12  1  0
 12 13  1  0
 13 14  1  0
 14 15  1  0
  6 16  2  0
 16 17  1  0
 17 18  1  0
 18 19  2  0
 18 20  1  0
 20 21  1  0
 21 22  1  0
 22 23  2  0
 23 24  1  0
 23 25  1  0
 25 26  2  0
 26 27  1  0
 26 28  1  0
 28 29  1  0
 29 30  2  0
 17 31  2  0
 31 32  1  0
 33  3  1  1
 33 34  1  0
 34 35  1  0
 35 36  1  0
 36 37  1  6
 37 38  1  0
 37 39  1  0
 39 40  1  0
 40 41  1  0
 41 42  1  0
 36 43  1  0
 43 44  1  0
 31  4  1  0
 44 33  1  0
 15 10  1  0
 29 22  1  0
M  END
$$$$
