
     RDKit          3D

 29 30  0  0  0  0  0  0  0  0999 V2000
  -23.8714   18.3577  -34.0364 C   0  0  0  0  0  0  0  0  0  0  0  0
  -24.0542   16.9459  -34.4557 C   0  0  0  0  0  0  0  0  0  0  0  0
  -23.0411   16.3038  -35.0846 C   0  0  0  0  0  0  0  0  0  0  0  0
  -21.8505   17.0833  -35.2865 C   0  0  0  0  0  0  0  0  0  0  0  0
  -20.5999   16.7571  -35.1373 C   0  0  0  0  0  0  0  0  0  0  0  0
  -19.5366   17.6893  -35.4951 C   0  0  0  0  0  0  0  0  0  0  0  0
  -19.6331   19.1532  -35.5526 C   0  0  0  0  0  0  0  0  0  0  0  0
  -18.3628   17.1590  -35.7994 C   0  0  0  0  0  0  0  0  0  0  0  0
  -17.5216   17.7563  -36.8235 C   0  0  0  0  0  0  0  0  0  0  0  0
  -16.2690   17.3903  -36.9940 C   0  0  0  0  0  0  0  0  0  0  0  0
  -15.3479   17.9465  -37.9562 C   0  0  0  0  0  0  0  0  0  0  0  0
  -15.7587   18.9426  -38.9531 C   0  0  0  0  0  0  0  0  0  0  0  0
  -14.0778   17.5221  -37.9178 C   0  0  0  0  0  0  0  0  0  0  0  0
  -13.2164   17.5115  -39.0898 C   0  0  0  0  0  0  0  0  0  0  0  0
  -13.6294   17.4253  -40.2646 O   0  0  0  0  0  0  0  0  0  0  0  0
  -11.7903   17.6032  -38.9534 N   0  0  0  0  0  0  0  0  0  0  0  0
  -10.9383   17.5628  -40.0897 C   0  0  0  0  0  0  0  0  0  0  0  0
  -11.1696   18.2613  -41.2391 C   0  0  0  0  0  0  0  0  0  0  0  0
  -10.2838   18.1640  -42.3032 C   0  0  0  0  0  0  0  0  0  0  0  0
   -9.1528   17.3775  -42.2572 C   0  0  0  0  0  0  0  0  0  0  0  0
   -8.2736   17.2930  -43.3389 O   0  0  0  0  0  0  0  0  0  0  0  0
   -8.9236   16.6733  -41.0925 C   0  0  0  0  0  0  0  0  0  0  0  0
   -9.8130   16.7725  -40.0275 C   0  0  0  0  0  0  0  0  0  0  0  0
  -23.3517   14.9248  -35.4473 C   0  0  0  0  0  0  0  0  0  0  0  0
  -23.4712   14.0835  -34.1677 C   0  0  0  0  0  0  0  0  0  0  0  0
  -22.4572   14.1964  -36.3897 C   0  0  0  0  0  0  0  0  0  0  0  0
  -24.7585   14.9305  -36.1000 C   0  0  0  0  0  0  0  0  0  0  0  0
  -25.8069   15.3197  -35.1276 C   0  0  0  0  0  0  0  0  0  0  0  0
  -25.3502   16.3314  -34.1324 C   0  0  0  0  0  0  0  0  0  0  0  0
  1  2  1  0
  2  3  2  0
  3  4  1  0
  4  5  2  0
  5  6  1  0
  6  7  1  0
  6  8  2  0
  8  9  1  0
  9 10  2  0
 10 11  1  0
 11 12  1  0
 11 13  2  0
 13 14  1  0
 14 15  2  0
 14 16  1  0
 16 17  1  0
 17 18  2  0
 18 19  1  0
 19 20  2  0
 20 21  1  0
 20 22  1  0
 22 23  2  0
  3 24  1  0
 24 25  1  0
 24 26  1  0
 24 27  1  0
 27 28  1  0
 28 29  1  0
 29  2  1  0
 23 17  1  0
M  END
$$$$
