
     RDKit          3D

 11  9  0  0  0  0  0  0  0  0999 V2000
  -18.1302   37.1387  -23.9671 N   0  0  0  0  0  0  0  0  0  0  0  0
  -18.2068   37.1851  -22.5319 C   0  0  1  0  0  0  0  0  0  0  0  0
  -17.9109   35.7843  -22.0023 C   0  0  0  0  0  0  0  0  0  0  0  0
  -18.9503   34.8722  -22.5780 C   0  0  0  0  0  0  0  0  0  0  0  0
  -18.8112   33.4771  -22.1668 C   0  0  0  0  0  0  0  0  0  0  0  0
  -19.6364   32.6325  -22.5971 O   0  0  0  0  0  0  0  0  0  0  0  0
  -17.7810   33.1098  -21.3164 O   0  0  0  0  0  1  0  0  0  0  0  0
  -17.2859   38.1880  -21.9883 C   0  0  0  0  0  0  0  0  0  0  0  0
  -16.5532   38.8809  -22.7480 O   0  0  0  0  0  0  0  0  0  0  0  0
  -17.1852   38.4127  -20.6219 O   0  0  0  0  0  0  0  0  0  0  0  0
  -18.1003   36.2585  -22.3676 Na  0  0  0  0  0 15  0  0  0  0  0  0
  2  1  1  6
  2  3  1  0
  3  4  1  0
  4  5  1  0
  5  6  2  0
  5  7  1  0
  2  8  1  0
  8  9  2  0
  8 10  1  0
M  CHG  2   7  -1  11   1
M  END
$$$$
