
     RDKit          3D

 40 44  0  0  0  0  0  0  0  0999 V2000
  -19.4487    0.0535  -26.4033 C   0  0  0  0  0  0  0  0  0  0  0  0
  -19.7064   -0.0269  -27.9057 C   0  0  0  0  0  0  0  0  0  0  0  0
  -19.2536   -1.3942  -28.4204 C   0  0  0  0  0  0  0  0  0  0  0  0
  -19.5557   -1.3912  -29.8705 C   0  0  0  0  0  0  0  0  0  0  0  0
  -20.8124   -1.9017  -30.2211 C   0  0  0  0  0  0  0  0  0  0  0  0
  -21.1513   -2.0642  -31.5505 C   0  0  0  0  0  0  0  0  0  0  0  0
  -22.4870   -2.6028  -31.9794 C   0  0  0  0  0  0  0  0  0  0  0  0
  -20.2353   -1.7158  -32.4734 N   0  0  0  0  0  0  0  0  0  0  0  0
  -19.0233   -1.2207  -32.1444 C   0  0  0  0  0  0  0  0  0  0  0  0
  -18.2565   -0.9331  -33.1136 O   0  0  0  0  0  0  0  0  0  0  0  0
  -18.6466   -1.0409  -30.8310 C   0  0  0  0  0  0  0  0  0  0  0  0
  -17.3606   -0.3632  -30.5861 C   0  0  0  0  0  0  0  0  0  0  0  0
  -16.3245   -0.6092  -31.5244 N   0  0  0  0  0  0  0  0  0  0  0  0
  -14.9861   -0.1736  -31.5352 C   0  0  0  0  0  0  0  0  0  0  0  0
  -14.6095    0.6030  -30.6537 O   0  0  0  0  0  0  0  0  0  0  0  0
  -13.9984   -0.5961  -32.5520 C   0  0  0  0  0  0  0  0  0  0  0  0
  -14.1326   -1.7814  -33.2614 C   0  0  0  0  0  0  0  0  0  0  0  0
  -13.1750   -2.1657  -34.1754 C   0  0  0  0  0  0  0  0  0  0  0  0
  -13.2369   -3.4009  -34.9492 C   0  0  0  0  0  0  0  0  0  0  0  0
  -13.4780   -4.6137  -34.3430 C   0  0  0  0  0  0  0  0  0  0  0  0
  -13.5493   -5.7766  -35.0644 C   0  0  0  0  0  0  0  0  0  0  0  0
  -13.3822   -5.7410  -36.3899 N   0  0  0  0  0  0  0  0  0  0  0  0
  -13.1379   -4.5739  -37.0673 C   0  0  0  0  0  0  0  0  0  0  0  0
  -12.9962   -4.6385  -38.4750 N   0  0  0  0  0  0  0  0  0  0  0  0
  -12.6831   -3.4418  -39.2210 C   0  0  0  0  0  0  0  0  0  0  0  0
  -13.7935   -3.1874  -40.2049 C   0  0  0  0  0  0  0  0  0  0  0  0
  -14.2562   -4.3783  -40.8263 N   0  0  0  0  0  0  0  0  0  0  0  0
  -14.5133   -4.1166  -42.2294 C   0  0  0  0  0  0  0  0  0  0  0  0
  -13.4504   -5.5463  -40.6552 C   0  0  0  0  0  0  0  0  0  0  0  0
  -13.1796   -5.8732  -39.1858 C   0  0  0  0  0  0  0  0  0  0  0  0
  -13.0702   -3.4162  -36.3178 C   0  0  0  0  0  0  0  0  0  0  0  0
  -12.0914   -1.3260  -34.3499 C   0  0  0  0  0  0  0  0  0  0  0  0
  -11.9375   -0.1455  -33.6584 C   0  0  0  0  0  0  0  0  0  0  0  0
  -12.9071    0.2292  -32.7420 C   0  0  0  0  0  0  0  0  0  0  0  0
  -12.5457    1.4407  -32.1720 C   0  0  0  0  0  0  0  0  0  0  0  0
  -11.3740    1.7639  -32.7554 N   0  0  0  0  0  0  0  0  0  0  0  0
  -11.0129    0.8326  -33.6302 N   0  0  0  0  0  0  0  0  0  0  0  0
   -9.8114    0.8214  -34.4555 C   0  0  0  0  0  0  0  0  0  0  0  0
   -8.6901    0.0211  -33.7754 C   0  0  0  0  0  0  0  0  0  0  0  0
   -9.3523    2.2430  -34.7320 C   0  0  0  0  0  0  0  0  0  0  0  0
  1  2  1  0
  2  3  1  0
  3  4  1  0
  4  5  1  0
  5  6  2  0
  6  7  1  0
  6  8  1  0
  8  9  1  0
  9 10  2  0
  9 11  1  0
 11 12  1  0
 12 13  1  0
 13 14  1  0
 14 15  2  0
 14 16  1  0
 16 17  2  0
 17 18  1  0
 18 19  1  0
 19 20  2  0
 20 21  1  0
 21 22  2  0
 22 23  1  0
 23 24  1  0
 24 25  1  0
 25 26  1  0
 26 27  1  0
 27 28  1  0
 27 29  1  0
 29 30  1  0
 23 31  2  0
 18 32  2  0
 32 33  1  0
 33 34  2  0
 34 35  1  0
 35 36  2  0
 36 37  1  0
 37 38  1  0
 38 39  1  0
 38 40  1  0
 11  4  2  0
 34 16  1  0
 31 19  1  0
 37 33  1  0
 30 24  1  0
M  END
$$$$
