
     RDKit          3D

 23 24  0  0  0  0  0  0  0  0999 V2000
  -23.2438   34.3072  -19.2966 C   0  0  0  0  0  0  0  0  0  0  0  0
  -21.9615   34.3137  -20.0639 C   0  0  0  0  0  0  0  0  0  0  0  0
  -20.8300   34.9250  -19.5716 C   0  0  0  0  0  0  0  0  0  0  0  0
  -19.6325   34.9294  -20.2918 C   0  0  0  0  0  0  0  0  0  0  0  0
  -19.5386   34.3210  -21.5243 C   0  0  0  0  0  0  0  0  0  0  0  0
  -18.0685   34.2948  -22.4802 S   0  0  0  0  0  6  0  0  0  0  0  0
  -17.8402   32.8798  -22.8945 O   0  0  0  0  0  0  0  0  0  0  0  0
  -16.9245   34.6472  -21.5374 O   0  0  0  0  0  0  0  0  0  0  0  0
  -18.1213   35.3695  -23.8064 N   0  0  0  0  0  0  0  0  0  0  0  0
  -18.2915   36.7406  -23.3280 C   0  0  1  0  0  0  0  0  0  0  0  0
  -16.9309   37.3696  -23.0785 C   0  0  0  0  0  0  0  0  0  0  0  0
  -17.0247   38.7470  -22.5740 C   0  0  0  0  0  0  0  0  0  0  0  0
  -16.9583   39.8036  -23.4559 C   0  0  0  0  0  0  0  0  0  0  0  0
  -17.0392   41.1184  -23.0522 C   0  0  0  0  0  0  0  0  0  0  0  0
  -17.1931   41.3813  -21.7062 C   0  0  0  0  0  0  0  0  0  0  0  0
  -17.2604   40.3182  -20.8144 C   0  0  0  0  0  0  0  0  0  0  0  0
  -17.1777   39.0084  -21.2365 C   0  0  0  0  0  0  0  0  0  0  0  0
  -19.1081   37.5248  -24.2820 C   0  0  0  0  0  0  0  0  0  0  0  0
  -18.7576   37.5347  -25.4571 O   0  0  0  0  0  0  0  0  0  0  0  0
  -20.3179   38.3081  -23.9718 C   0  0  0  0  0  0  0  0  0  0  0  0
  -21.0998   39.0645  -25.3409 Cl  0  0  0  0  0  0  0  0  0  0  0  0
  -20.6862   33.7074  -22.0112 C   0  0  0  0  0  0  0  0  0  0  0  0
  -21.8658   33.7052  -21.2975 C   0  0  0  0  0  0  0  0  0  0  0  0
  1  2  1  0
  2  3  2  0
  3  4  1  0
  4  5  2  0
  5  6  1  0
  6  7  2  0
  6  8  2  0
  6  9  1  0
  9 10  1  0
 10 11  1  6
 11 12  1  0
 12 13  2  0
 13 14  1  0
 14 15  2  0
 15 16  1  0
 16 17  2  0
 10 18  1  0
 18 19  2  0
 18 20  1  0
 20 21  1  0
  5 22  1  0
 22 23  2  0
 23  2  1  0
 17 12  1  0
M  END
$$$$
