
     RDKit          3D

 24 26  0  0  0  0  0  0  0  0999 V2000
  -19.0277   42.0636  -23.9559 C   0  0  0  0  0  0  0  0  0  0  0  0
  -18.3069   40.7835  -23.6853 C   0  0  2  0  0  0  0  0  0  0  0  0
  -19.1542   39.6169  -23.8960 N   0  0  0  0  0  0  0  0  0  0  0  0
  -18.6410   38.3432  -24.2503 C   0  0  0  0  0  0  0  0  0  0  0  0
  -17.4112   38.1627  -24.1482 O   0  0  0  0  0  0  0  0  0  0  0  0
  -19.5306   37.2537  -24.7284 C   0  0  0  0  0  0  0  0  0  0  0  0
  -18.8513   35.9415  -24.5429 C   0  0  0  0  0  0  0  0  0  0  0  0
  -19.4498   35.0872  -23.5179 C   0  0  0  0  0  0  0  0  0  0  0  0
  -19.6621   33.7920  -23.8132 N   0  0  0  0  0  0  0  0  0  0  0  0
  -20.2101   32.9756  -22.8972 C   0  0  0  0  0  0  0  0  0  0  0  0
  -20.4191   31.7469  -23.1573 O   0  0  0  0  0  0  0  0  0  0  0  0
  -20.5516   33.4722  -21.6590 C   0  0  0  0  0  0  0  0  0  0  0  0
  -21.1115   32.6213  -20.7343 C   0  0  0  0  0  0  0  0  0  0  0  0
  -21.4502   33.1102  -19.5084 C   0  0  0  0  0  0  0  0  0  0  0  0
  -21.2318   34.4368  -19.2087 C   0  0  0  0  0  0  0  0  0  0  0  0
  -20.6719   35.2947  -20.1286 C   0  0  0  0  0  0  0  0  0  0  0  0
  -20.3273   34.8009  -21.3734 C   0  0  0  0  0  0  0  0  0  0  0  0
  -19.7775   35.5963  -22.3080 N   0  0  0  0  0  0  0  0  0  0  0  0
  -17.7882   40.7745  -22.3063 C   0  0  0  0  0  0  0  0  0  0  0  0
  -16.6145   41.4512  -22.0075 C   0  0  0  0  0  0  0  0  0  0  0  0
  -16.1527   41.4272  -20.7114 C   0  0  0  0  0  0  0  0  0  0  0  0
  -16.8457   40.7436  -19.7341 C   0  0  0  0  0  0  0  0  0  0  0  0
  -18.0118   40.0717  -20.0327 C   0  0  0  0  0  0  0  0  0  0  0  0
  -18.4803   40.0919  -21.3309 C   0  0  0  0  0  0  0  0  0  0  0  0
  2  1  1  1
  2  3  1  0
  3  4  1  0
  4  5  2  0
  4  6  1  0
  6  7  1  0
  7  8  1  0
  8  9  2  0
  9 10  1  0
 10 11  2  0
 10 12  1  0
 12 13  2  0
 13 14  1  0
 14 15  2  0
 15 16  1  0
 16 17  2  0
 17 18  1  0
  2 19  1  0
 19 20  2  0
 20 21  1  0
 21 22  2  0
 22 23  1  0
 23 24  2  0
 18  8  1  0
 24 19  1  0
 17 12  1  0
M  END
$$$$
