
     RDKit          3D

 19 20  0  0  0  0  0  0  0  0999 V2000
  -19.1077   42.2182  -20.9912 O   0  0  0  0  0  0  0  0  0  0  0  0
  -18.7801   41.0236  -21.2290 C   0  0  0  0  0  0  0  0  0  0  0  0
  -19.6682   40.1386  -21.6392 N   0  0  0  0  0  0  0  0  0  0  0  0
  -19.3228   38.8524  -21.8968 C   0  0  0  0  0  0  0  0  0  0  0  0
  -20.2489   38.0955  -22.2821 O   0  0  0  0  0  0  0  0  0  0  0  0
  -18.0609   38.4167  -21.7471 N   0  0  0  0  0  0  0  0  0  0  0  0
  -17.6702   37.0736  -22.0099 C   0  0  1  0  0  0  0  0  0  0  0  0
  -17.6858   36.1921  -20.7879 C   0  0  0  0  0  0  0  0  0  0  0  0
  -17.8240   34.7888  -21.3609 C   0  0  2  0  0  0  0  0  0  0  0  0
  -16.6440   34.0699  -21.2342 O   0  0  0  0  0  0  0  0  0  0  0  0
  -18.1573   35.0814  -22.8070 C   0  0  1  0  0  0  0  0  0  0  0  0
  -19.2329   34.1266  -23.2338 C   0  0  0  0  0  0  0  0  0  0  0  0
  -20.3272   34.8592  -23.7309 O   0  0  0  0  0  0  0  0  0  0  0  0
  -18.5624   36.4094  -22.8525 O   0  0  0  0  0  0  0  0  0  0  0  0
  -17.1547   39.3114  -21.3307 C   0  0  0  0  0  0  0  0  0  0  0  0
  -17.4611   40.6238  -21.0583 C   0  0  0  0  0  0  0  0  0  0  0  0
  -16.5159   41.6196  -20.6079 C   0  0  0  0  0  0  0  0  0  0  0  0
  -15.2348   41.3910  -20.3676 C   0  0  0  0  0  0  0  0  0  0  0  0
  -13.9944   42.8546  -20.1691 Br  0  0  0  0  0  0  0  0  0  0  0  0
  1  2  2  0
  2  3  1  0
  3  4  1  0
  4  5  2  0
  4  6  1  0
  7  6  1  1
  7  8  1  0
  8  9  1  0
  9 10  1  6
  9 11  1  0
 11 12  1  1
 12 13  1  0
 11 14  1  0
  6 15  1  0
 15 16  2  0
 16 17  1  0
 17 18  2  0
 18 19  1  0
 16  2  1  0
 14  7  1  0
M  END
$$$$
