
     RDKit          3D

 16 17  0  0  0  0  0  0  0  0999 V2000
  -21.2440   31.5983  -21.2561 C   0  0  0  0  0  0  0  0  0  0  0  0
  -20.9800   32.3543  -22.4013 O   0  0  0  0  0  0  0  0  0  0  0  0
  -20.1311   33.4400  -22.4511 C   0  0  0  0  0  0  0  0  0  0  0  0
  -20.4138   34.6618  -23.0043 C   0  0  0  0  0  0  0  0  0  0  0  0
  -19.4854   35.7112  -23.0090 C   0  0  0  0  0  0  0  0  0  0  0  0
  -18.2421   35.5349  -22.4464 C   0  0  0  0  0  0  0  0  0  0  0  0
  -17.2784   36.6190  -22.4516 C   0  0  0  0  0  0  0  0  0  0  0  0
  -16.1085   36.4017  -22.9148 O   0  0  0  0  0  0  0  0  0  0  0  0
  -17.6004   37.9227  -21.9529 N   0  0  0  0  0  0  0  0  0  0  0  0
  -16.7332   39.0626  -22.0478 C   0  0  0  0  0  0  0  0  0  0  0  0
  -17.5392   40.2852  -21.7646 C   0  0  0  0  0  0  0  0  0  0  0  0
  -18.5942   39.7501  -20.7877 C   0  0  0  0  0  0  0  0  0  0  0  0
  -18.7824   38.3413  -21.2930 C   0  0  0  0  0  0  0  0  0  0  0  0
  -19.8310   37.6777  -21.1350 O   0  0  0  0  0  0  0  0  0  0  0  0
  -17.9772   34.3036  -21.8965 C   0  0  0  0  0  0  0  0  0  0  0  0
  -18.8683   33.2685  -21.8817 C   0  0  0  0  0  0  0  0  0  0  0  0
  1  2  1  0
  2  3  1  0
  3  4  2  0
  4  5  1  0
  5  6  2  0
  6  7  1  0
  7  8  2  0
  7  9  1  0
  9 10  1  0
 10 11  1  0
 11 12  1  0
 12 13  1  0
 13 14  2  0
  6 15  1  0
 15 16  2  0
 16  3  1  0
 13  9  1  0
M  END
$$$$
