
     RDKit          3D

 27 29  0  0  0  0  0  0  0  0999 V2000
  -21.7138   22.1301  -31.8095 C   0  0  0  0  0  0  0  0  0  0  0  0
  -21.8859   21.9060  -33.2742 C   0  0  0  0  0  0  0  0  0  0  0  0
  -20.8570   22.6952  -34.0854 C   0  0  0  0  0  0  0  0  0  0  0  0
  -21.8030   20.4646  -33.7051 C   0  0  2  0  0  0  0  0  0  0  0  0
  -23.0642   19.6893  -33.5329 C   0  0  0  0  0  0  0  0  0  0  0  0
  -22.9809   18.5862  -34.4174 O   0  0  0  0  0  0  0  0  0  0  0  0
  -20.6638   19.8036  -33.1283 N   0  0  0  0  0  0  0  0  0  0  0  0
  -19.5845   19.4135  -33.9724 C   0  0  0  0  0  0  0  0  0  0  0  0
  -19.6762   19.5528  -35.3262 N   0  0  0  0  0  0  0  0  0  0  0  0
  -18.6689   19.2043  -36.1223 C   0  0  0  0  0  0  0  0  0  0  0  0
  -18.7178   19.3267  -37.5538 N   0  0  0  0  0  0  0  0  0  0  0  0
  -19.8027   19.9470  -38.2085 C   0  0  0  0  0  0  0  0  0  0  0  0
  -20.1393   21.2542  -37.9363 C   0  0  0  0  0  0  0  0  0  0  0  0
  -21.2023   21.8559  -38.5732 C   0  0  0  0  0  0  0  0  0  0  0  0
  -21.9338   21.1107  -39.5036 C   0  0  0  0  0  0  0  0  0  0  0  0
  -21.5920   19.8126  -39.7676 C   0  0  0  0  0  0  0  0  0  0  0  0
  -22.5303   18.9064  -40.9354 Cl  0  0  0  0  0  0  0  0  0  0  0  0
  -20.5317   19.2223  -39.1283 C   0  0  0  0  0  0  0  0  0  0  0  0
  -17.4711   18.6810  -35.6276 C   0  0  0  0  0  0  0  0  0  0  0  0
  -16.3287   18.2537  -36.1562 N   0  0  0  0  0  0  0  0  0  0  0  0
  -15.4891   17.8361  -35.1693 C   0  0  0  0  0  0  0  0  0  0  0  0
  -16.1728   18.0293  -34.0256 N   0  0  0  0  0  0  0  0  0  0  0  0
  -15.6549   17.7173  -32.7105 C   0  0  0  0  0  0  0  0  0  0  0  0
  -14.7657   18.8229  -32.2038 C   0  0  0  0  0  0  0  0  0  0  0  0
  -16.7840   17.4255  -31.7322 C   0  0  0  0  0  0  0  0  0  0  0  0
  -17.3890   18.5445  -34.2657 C   0  0  0  0  0  0  0  0  0  0  0  0
  -18.4372   18.9118  -33.4964 N   0  0  0  0  0  0  0  0  0  0  0  0
  1  2  1  0
  2  3  1  0
  2  4  1  0
  4  5  1  1
  5  6  1  0
  4  7  1  0
  7  8  1  0
  8  9  2  0
  9 10  1  0
 10 11  1  0
 11 12  1  0
 12 13  2  0
 13 14  1  0
 14 15  2  0
 15 16  1  0
 16 17  1  0
 16 18  2  0
 10 19  2  0
 19 20  1  0
 20 21  2  0
 21 22  1  0
 22 23  1  0
 23 24  1  0
 23 25  1  0
 22 26  1  0
 26 27  2  0
 27  8  1  0
 18 12  1  0
 26 19  1  0
M  END
$$$$
