
     RDKit          3D

 27 30  0  0  0  0  0  0  0  0999 V2000
  -20.0169   31.6248  -20.0324 C   0  0  0  0  0  0  0  0  0  0  0  0
  -19.2206   32.0333  -21.1615 N   0  0  0  0  0  0  0  0  0  0  0  0
  -18.4918   33.2449  -20.9618 C   0  0  0  0  0  0  0  0  0  0  0  0
  -18.3864   33.9770  -22.3051 C   0  0  0  0  0  0  0  0  0  0  0  0
  -19.7968   34.2844  -22.6378 N   0  0  0  0  0  0  0  0  0  0  0  0
  -20.2749   35.5821  -22.6751 C   0  0  0  0  0  0  0  0  0  0  0  0
  -21.5509   35.7529  -22.7515 O   0  0  0  0  0  0  0  0  0  0  0  0
  -19.4221   36.7473  -22.6349 C   0  0  0  0  0  0  0  0  0  0  0  0
  -18.0712   36.9162  -22.9255 C   0  0  0  0  0  0  0  0  0  0  0  0
  -17.5705   38.1666  -22.7694 C   0  0  0  0  0  0  0  0  0  0  0  0
  -18.3446   39.1545  -22.3601 C   0  0  0  0  0  0  0  0  0  0  0  0
  -18.0831   40.5732  -22.0847 C   0  0  0  0  0  0  0  0  0  0  0  0
  -18.4429   41.5324  -22.9933 C   0  0  0  0  0  0  0  0  0  0  0  0
  -18.1715   42.8598  -22.7327 C   0  0  0  0  0  0  0  0  0  0  0  0
  -17.5452   43.2552  -21.5785 C   0  0  0  0  0  0  0  0  0  0  0  0
  -17.2491   44.5615  -21.2833 C   0  0  0  0  0  0  0  0  0  0  0  0
  -17.6031   45.6245  -22.2030 C   0  0  0  0  0  0  0  0  0  0  0  0
  -17.0027   46.7522  -22.1318 O   0  0  0  0  0  0  0  0  0  0  0  0
  -16.6009   44.9389  -20.1007 C   0  0  0  0  0  0  0  0  0  0  0  0
  -16.2982   46.2533  -19.7933 O   0  0  0  0  0  0  0  0  0  0  0  0
  -16.2518   43.9560  -19.2085 C   0  0  0  0  0  0  0  0  0  0  0  0
  -16.5434   42.6382  -19.4920 C   0  0  0  0  0  0  0  0  0  0  0  0
  -17.1795   42.2709  -20.6530 C   0  0  0  0  0  0  0  0  0  0  0  0
  -17.4527   40.9590  -20.9204 C   0  0  0  0  0  0  0  0  0  0  0  0
  -19.9526   38.3869  -22.1395 S   0  0  0  0  0  0  0  0  0  0  0  0
  -20.5921   33.1098  -22.9195 C   0  0  0  0  0  0  0  0  0  0  0  0
  -19.8477   31.8715  -22.4293 C   0  0  0  0  0  0  0  0  0  0  0  0
  1  2  1  0
  2  3  1  0
  3  4  1  0
  4  5  1  0
  5  6  1  0
  6  7  2  0
  6  8  1  0
  8  9  2  0
  9 10  1  0
 10 11  2  0
 11 12  1  0
 12 13  2  0
 13 14  1  0
 14 15  2  0
 15 16  1  0
 16 17  1  0
 17 18  2  0
 16 19  2  0
 19 20  1  0
 19 21  1  0
 21 22  2  0
 22 23  1  0
 23 24  2  0
 11 25  1  0
  5 26  1  0
 26 27  1  0
 27  2  1  0
 25  8  1  0
 24 12  1  0
 23 15  1  0
M  END
$$$$
