
     RDKit          3D

 24 27  0  0  0  0  0  0  0  0999 V2000
  -18.5705   38.7054  -18.6558 N   0  0  0  0  0  0  0  0  0  0  0  0
  -18.2630   38.7487  -19.7784 C   0  0  0  0  0  0  0  0  0  0  0  0
  -17.8215   38.8307  -21.3242 C   0  0  0  0  0  0  0  0  0  0  0  0
  -17.3519   40.0424  -21.6369 C   0  0  0  0  0  0  0  0  0  0  0  0
  -16.8955   41.1816  -21.1140 N   0  0  0  0  0  0  0  0  0  0  0  0
  -16.4800   42.3665  -21.5941 C   0  0  0  0  0  0  0  0  0  0  0  0
  -16.6764   42.5806  -22.9328 O   0  0  0  0  0  0  0  0  0  0  0  0
  -15.8431   43.5303  -20.9431 C   0  0  0  0  0  0  0  0  0  0  0  0
  -14.5863   43.5078  -20.5422 C   0  0  0  0  0  0  0  0  0  0  0  0
  -13.9802   44.6869  -20.0168 C   0  0  0  0  0  0  0  0  0  0  0  0
  -14.7432   45.7788  -19.9493 C   0  0  0  0  0  0  0  0  0  0  0  0
  -16.0403   45.8217  -20.3576 C   0  0  0  0  0  0  0  0  0  0  0  0
  -16.8484   46.9876  -20.4094 C   0  0  0  0  0  0  0  0  0  0  0  0
  -17.9868   46.9056  -20.9025 C   0  0  0  0  0  0  0  0  0  0  0  0
  -18.7637   45.8450  -21.4739 C   0  0  0  0  0  0  0  0  0  0  0  0
  -17.9156   44.6609  -21.3960 C   0  0  0  0  0  0  0  0  0  0  0  0
  -16.6795   44.6930  -20.8859 C   0  0  0  0  0  0  0  0  0  0  0  0
  -17.7544   39.8411  -23.4742 S   0  0  0  0  0  0  0  0  0  0  0  0
  -18.4741   38.1745  -23.4045 C   0  0  0  0  0  0  0  0  0  0  0  0
  -18.3210   37.9698  -22.0814 C   0  0  0  0  0  0  0  0  0  0  0  0
  -18.8471   36.5305  -21.6719 C   0  0  0  0  0  0  0  0  0  0  0  0
  -20.1023   36.4158  -22.4760 C   0  0  0  0  0  0  0  0  0  0  0  0
  -19.5717   36.0629  -23.8678 C   0  0  0  0  0  0  0  0  0  0  0  0
  -19.0086   37.3036  -24.4540 C   0  0  0  0  0  0  0  0  0  0  0  0
  1  2  3  0
  2  3  1  0
  3  4  2  0
  4  5  1  0
  5  6  1  0
  6  7  2  0
  6  8  1  0
  8  9  2  0
  9 10  1  0
 10 11  2  0
 11 12  1  0
 12 13  2  0
 13 14  1  0
 14 15  2  0
 15 16  1  0
 16 17  2  0
  4 18  1  0
 18 19  1  0
 19 20  2  0
 20 21  1  0
 21 22  1  0
 22 23  1  0
 23 24  1  0
 20  3  1  0
 17  8  1  0
 24 19  1  0
 17 12  1  0
M  END
$$$$
