
     RDKit          3D

 27 30  0  0  0  0  0  0  0  0999 V2000
  -42.0467    4.7071  -42.4148 C   0  0  0  0  0  0  0  0  0  0  0  0
  -42.4714    5.5589  -43.5747 C   0  0  2  0  0  0  0  0  0  0  0  0
  -42.0102    4.9787  -44.8526 C   0  0  0  0  0  0  0  0  0  0  0  0
  -40.7033    4.2490  -44.6830 C   0  0  0  0  0  0  0  0  0  0  0  0
  -40.2438    3.6790  -46.0016 C   0  0  0  0  0  0  0  0  0  0  0  0
  -40.9765    3.8909  -46.9963 O   0  0  0  0  0  0  0  0  0  0  0  0
  -39.0738    2.9737  -46.0507 O   0  0  0  0  0  0  0  0  0  0  0  0
  -42.1171    6.9930  -43.3569 C   0  0  1  0  0  0  0  0  0  0  0  0
  -42.6224    7.8994  -44.4616 C   0  0  0  0  0  0  0  0  0  0  0  0
  -43.3395    9.0618  -43.7984 C   0  0  0  0  0  0  0  0  0  0  0  0
  -42.5878    9.0732  -42.5156 C   0  0  1  0  0  0  0  0  0  0  0  0
  -43.0152    9.9686  -41.4537 C   0  0  2  0  0  0  0  0  0  0  0  0
  -43.2243   11.4086  -41.8640 C   0  0  0  0  0  0  0  0  0  0  0  0
  -43.7265   12.1690  -40.6808 C   0  0  0  0  0  0  0  0  0  0  0  0
  -43.3454   11.5634  -39.3449 C   0  0  2  0  0  0  0  0  0  0  0  0
  -43.4758   12.5786  -38.2504 C   0  0  0  0  0  0  0  0  0  0  0  0
  -42.3659   13.5749  -38.1874 C   0  0  2  0  0  0  0  0  0  0  0  0
  -42.5456   14.6482  -39.0628 O   0  0  0  0  0  0  0  0  0  0  0  0
  -40.9940   12.9915  -38.3893 C   0  0  0  0  0  0  0  0  0  0  0  0
  -40.9342   11.9769  -39.4855 C   0  0  0  0  0  0  0  0  0  0  0  0
  -42.0033   10.9204  -39.3429 C   0  0  1  0  0  0  0  0  0  0  0  0
  -41.8030   10.2859  -37.9657 C   0  0  0  0  0  0  0  0  0  0  0  0
  -41.8926    9.8924  -40.3957 C   0  0  1  0  0  0  0  0  0  0  0  0
  -42.1023    8.4913  -39.8116 C   0  0  0  0  0  0  0  0  0  0  0  0
  -41.8950    7.4378  -40.8761 C   0  0  0  0  0  0  0  0  0  0  0  0
  -42.7146    7.6167  -42.1066 C   0  0  2  0  0  0  0  0  0  0  0  0
  -44.1551    7.2121  -41.9314 C   0  0  0  0  0  0  0  0  0  0  0  0
  2  1  1  1
  2  3  1  0
  3  4  1  0
  4  5  1  0
  5  6  2  0
  5  7  1  0
  2  8  1  0
  8  9  1  6
  9 10  1  0
 11 10  1  6
 11 12  1  0
 12 13  1  6
 13 14  1  0
 15 14  1  6
 15 16  1  0
 16 17  1  0
 17 18  1  6
 17 19  1  0
 19 20  1  0
 20 21  1  0
 21 22  1  1
 21 23  1  0
 23 24  1  1
 24 25  1  0
 25 26  1  0
 26 27  1  1
 26  8  1  0
 26 11  1  0
 23 12  1  0
 21 15  1  0
M  END
$$$$
