
     RDKit          3D

 30 34  0  0  0  0  0  0  0  0999 V2000
  -29.0119   15.2801  -24.3070 C   0  0  0  0  0  0  0  0  0  0  0  0
  -27.8446   15.4624  -23.7308 C   0  0  0  0  0  0  0  0  0  0  0  0
  -26.8648   14.3605  -23.6969 C   0  0  0  0  0  0  0  0  0  0  0  0
  -25.9122   14.5910  -24.7669 N   0  0  0  0  0  0  0  0  0  0  0  0
  -24.5676   14.4357  -24.7482 C   0  0  0  0  0  0  0  0  0  0  0  0
  -23.7468   14.0200  -23.7160 C   0  0  0  0  0  0  0  0  0  0  0  0
  -22.3910   13.9415  -23.9459 C   0  0  0  0  0  0  0  0  0  0  0  0
  -21.8181   14.2591  -25.1586 C   0  0  0  0  0  0  0  0  0  0  0  0
  -22.6293   14.6741  -26.1921 C   0  0  0  0  0  0  0  0  0  0  0  0
  -24.0086   14.7569  -25.9676 C   0  0  0  0  0  0  0  0  0  0  0  0
  -25.0702   15.1239  -26.7598 C   0  0  0  0  0  0  0  0  0  0  0  0
  -25.1158   15.5286  -28.0310 N   0  0  0  0  0  0  0  0  0  0  0  0
  -26.2836   15.8317  -28.5824 N   0  0  0  0  0  0  0  0  0  0  0  0
  -27.4003   15.7300  -27.8639 C   0  0  0  0  0  0  0  0  0  0  0  0
  -28.9721   16.1400  -28.6124 S   0  0  0  0  0  0  0  0  0  0  0  0
  -30.3591   15.5626  -27.5586 C   0  0  0  0  0  0  0  0  0  0  0  0
  -30.2928   16.4326  -26.2951 C   0  0  0  0  0  0  0  0  0  0  0  0
  -31.7219   16.8618  -26.0303 C   0  0  0  0  0  0  0  0  0  0  0  0
  -32.3806   16.0763  -25.0444 N   0  0  0  0  0  0  0  0  0  0  0  0
  -31.8575   15.0263  -24.3944 C   0  0  0  0  0  0  0  0  0  0  0  0
  -30.7126   14.5464  -24.5282 O   0  0  0  0  0  0  0  0  0  0  0  0
  -32.7752   14.5387  -23.5402 N   0  0  0  0  0  0  0  0  0  0  0  0
  -33.8976   15.2581  -23.6221 C   0  0  0  0  0  0  0  0  0  0  0  0
  -35.1303   15.2242  -23.0066 C   0  0  0  0  0  0  0  0  0  0  0  0
  -36.1040   16.1459  -23.3324 C   0  0  0  0  0  0  0  0  0  0  0  0
  -35.8562   17.1158  -24.2807 C   0  0  0  0  0  0  0  0  0  0  0  0
  -34.6195   17.1375  -24.8877 C   0  0  0  0  0  0  0  0  0  0  0  0
  -33.6304   16.2347  -24.5854 C   0  0  0  0  0  0  0  0  0  0  0  0
  -27.4052   15.3276  -26.5822 N   0  0  0  0  0  0  0  0  0  0  0  0
  -26.2270   15.0215  -26.0249 C   0  0  0  0  0  0  0  0  0  0  0  0
  1  2  2  0
  2  3  1  0
  3  4  1  0
  4  5  1  0
  5  6  2  0
  6  7  1  0
  7  8  2  0
  8  9  1  0
  9 10  2  0
 10 11  1  0
 11 12  2  0
 12 13  1  0
 13 14  2  0
 14 15  1  0
 15 16  1  0
 16 17  1  0
 17 18  1  0
 18 19  1  0
 19 20  1  0
 20 21  2  0
 20 22  1  0
 22 23  1  0
 23 24  2  0
 24 25  1  0
 25 26  2  0
 26 27  1  0
 27 28  2  0
 14 29  1  0
 29 30  2  0
 30  4  1  0
 10  5  1  0
 30 11  1  0
 28 19  1  0
 28 23  1  0
M  END
$$$$
