
     RDKit          3D

 28 31  0  0  0  0  0  0  0  0999 V2000
  -29.4067   22.6388  -26.2262 C   0  0  0  0  0  0  0  0  0  0  0  0
  -28.7480   21.4638  -26.6782 N   0  0  0  0  0  0  0  0  0  0  0  0
  -28.2076   20.6450  -25.6956 C   0  0  0  0  0  0  0  0  0  0  0  0
  -28.0511   19.2036  -25.9489 C   0  0  0  0  0  0  0  0  0  0  0  0
  -27.7273   18.9637  -27.4138 C   0  0  1  0  0  0  0  0  0  0  0  0
  -27.5375   17.5650  -27.5688 N   0  0  0  0  0  0  0  0  0  0  0  0
  -28.0516   16.6095  -26.6364 C   0  0  0  0  0  0  0  0  0  0  0  0
  -27.2093   16.0084  -25.9806 O   0  0  0  0  0  0  0  0  0  0  0  0
  -29.4144   16.3576  -26.4633 N   0  0  0  0  0  0  0  0  0  0  0  0
  -30.0457   15.4284  -25.6160 C   0  0  0  0  0  0  0  0  0  0  0  0
  -31.3967   15.1418  -25.7916 C   0  0  0  0  0  0  0  0  0  0  0  0
  -32.0062   14.2373  -24.9655 C   0  0  0  0  0  0  0  0  0  0  0  0
  -31.3076   13.6015  -23.9589 C   0  0  0  0  0  0  0  0  0  0  0  0
  -31.9556   12.6571  -23.1028 C   0  0  0  0  0  0  0  0  0  0  0  0
  -32.4957   11.8732  -22.4009 N   0  0  0  0  0  0  0  0  0  0  0  0
  -29.9725   13.8548  -23.7505 C   0  0  0  0  0  0  0  0  0  0  0  0
  -29.3720   14.7888  -24.6146 C   0  0  0  0  0  0  0  0  0  0  0  0
  -28.8822   19.5228  -28.2011 C   0  0  0  0  0  0  0  0  0  0  0  0
  -29.1425   20.9495  -27.9164 C   0  0  2  0  0  0  0  0  0  0  0  0
  -28.5149   21.8117  -28.9857 C   0  0  0  0  0  0  0  0  0  0  0  0
  -27.3007   22.3443  -29.0325 N   0  0  0  0  0  0  0  0  0  0  0  0
  -27.1783   23.0423  -30.1846 C   0  0  0  0  0  0  0  0  0  0  0  0
  -26.1488   23.7772  -30.7280 C   0  0  0  0  0  0  0  0  0  0  0  0
  -26.3094   24.4061  -31.9661 C   0  0  0  0  0  0  0  0  0  0  0  0
  -27.4933   24.3039  -32.6629 C   0  0  0  0  0  0  0  0  0  0  0  0
  -28.5042   23.5619  -32.0934 C   0  0  0  0  0  0  0  0  0  0  0  0
  -28.3729   22.9263  -30.8650 C   0  0  0  0  0  0  0  0  0  0  0  0
  -29.1731   22.1622  -30.0985 N   0  0  0  0  0  0  0  0  0  0  0  0
  1  2  1  0
  2  3  1  0
  3  4  1  0
  4  5  1  0
  5  6  1  1
  6  7  1  0
  7  8  2  0
  7  9  1  0
  9 10  1  0
 10 11  2  0
 11 12  1  0
 12 13  2  0
 13 14  1  0
 14 15  3  0
 13 16  1  0
 16 17  2  0
  5 18  1  0
 18 19  1  0
 19 20  1  6
 20 21  2  0
 21 22  1  0
 22 23  2  0
 23 24  1  0
 24 25  2  0
 25 26  1  0
 26 27  2  0
 27 28  1  0
 19  2  1  0
 28 20  1  0
 17 10  1  0
 27 22  1  0
M  END
$$$$
