
     RDKit          3D

 26 28  0  0  0  0  0  0  0  0999 V2000
  -28.8284   24.9233  -32.3150 C   0  0  0  0  0  0  0  0  0  0  0  0
  -27.5214   24.4799  -32.5769 O   0  0  0  0  0  0  0  0  0  0  0  0
  -27.0591   23.3032  -32.0081 C   0  0  0  0  0  0  0  0  0  0  0  0
  -27.9338   22.5952  -31.2473 C   0  0  0  0  0  0  0  0  0  0  0  0
  -27.5707   21.4227  -30.6378 C   0  0  0  0  0  0  0  0  0  0  0  0
  -28.5476   20.7166  -29.8171 C   0  0  0  0  0  0  0  0  0  0  0  0
  -29.7170   20.2027  -30.3671 C   0  0  0  0  0  0  0  0  0  0  0  0
  -30.6407   19.5770  -29.6260 N   0  0  0  0  0  0  0  0  0  0  0  0
  -31.8429   19.0572  -30.2361 C   0  0  0  0  0  0  0  0  0  0  0  0
  -30.4785   19.4150  -28.3032 C   0  0  0  0  0  0  0  0  0  0  0  0
  -31.3550   18.8201  -27.5907 O   0  0  0  0  0  0  0  0  0  0  0  0
  -29.3450   19.8967  -27.6874 C   0  0  0  0  0  0  0  0  0  0  0  0
  -29.2105   19.7026  -26.3279 C   0  0  0  0  0  0  0  0  0  0  0  0
  -28.0912   20.1725  -25.7515 N   0  0  0  0  0  0  0  0  0  0  0  0
  -27.1398   20.8070  -26.4713 C   0  0  0  0  0  0  0  0  0  0  0  0
  -27.2606   21.0083  -27.8288 C   0  0  0  0  0  0  0  0  0  0  0  0
  -28.3791   20.5503  -28.4599 C   0  0  0  0  0  0  0  0  0  0  0  0
  -26.2853   20.9800  -30.8188 C   0  0  0  0  0  0  0  0  0  0  0  0
  -25.3622   21.6548  -31.5772 C   0  0  0  0  0  0  0  0  0  0  0  0
  -24.0616   21.2133  -31.7652 O   0  0  0  0  0  0  0  0  0  0  0  0
  -23.7206   19.8729  -31.9771 C   0  0  0  0  0  0  0  0  0  0  0  0
  -25.7722   22.8453  -32.1829 C   0  0  0  0  0  0  0  0  0  0  0  0
  -24.8394   23.5859  -33.0483 C   0  0  0  0  0  0  0  0  0  0  0  0
  -23.8102   24.3158  -32.4310 N   0  0  0  0  0  0  0  0  0  0  0  0
  -23.7002   25.6857  -32.7853 C   0  0  0  0  0  0  0  0  0  0  0  0
  -23.9053   24.1962  -30.9915 C   0  0  0  0  0  0  0  0  0  0  0  0
  1  2  1  0
  2  3  1  0
  3  4  2  0
  4  5  1  0
  5  6  1  0
  6  7  2  0
  7  8  1  0
  8  9  1  0
  8 10  1  0
 10 11  2  0
 10 12  1  0
 12 13  2  0
 13 14  1  0
 14 15  2  0
 15 16  1  0
 16 17  2  0
  5 18  2  0
 18 19  1  0
 19 20  1  0
 20 21  1  0
 19 22  2  0
 22 23  1  0
 23 24  1  0
 24 25  1  0
 24 26  1  0
 22  3  1  0
 17  6  1  0
 17 12  1  0
M  END
$$$$
