
     RDKit          3D

 19 21  0  0  0  0  0  0  0  0999 V2000
  -20.3883   14.3751  -35.2595 C   0  0  0  0  0  0  0  0  0  0  0  0
  -19.9541   15.5486  -34.6468 O   0  0  0  0  0  0  0  0  0  0  0  0
  -18.6484   16.0385  -34.6764 C   0  0  0  0  0  0  0  0  0  0  0  0
  -17.9908   16.4024  -35.8161 C   0  0  0  0  0  0  0  0  0  0  0  0
  -16.6890   16.8870  -35.8111 C   0  0  0  0  0  0  0  0  0  0  0  0
  -16.0489   16.9986  -34.5937 C   0  0  0  0  0  0  0  0  0  0  0  0
  -14.8276   17.4147  -34.2270 N   0  0  0  0  0  0  0  0  0  0  0  0
  -14.6849   17.3287  -32.8961 C   0  0  0  0  0  0  0  0  0  0  0  0
  -15.8571   16.8377  -32.3694 C   0  0  0  0  0  0  0  0  0  0  0  0
  -16.1589   16.5770  -30.9180 C   0  0  0  0  0  0  0  0  0  0  0  0
  -16.0636   15.0809  -30.7001 C   0  0  0  0  0  0  0  0  0  0  0  0
  -16.5895   14.6739  -29.4339 N   0  0  0  0  0  0  0  0  0  0  0  0
  -15.8666   14.8123  -28.2093 C   0  0  0  0  0  0  0  0  0  0  0  0
  -15.3883   15.9496  -27.9314 O   0  0  0  0  0  0  0  0  0  0  0  0
  -15.7007   13.6388  -27.3149 C   0  0  0  0  0  0  0  0  0  0  0  0
  -14.3714   13.2811  -26.7588 C   0  0  0  0  0  0  0  0  0  0  0  0
  -15.4571   13.8095  -25.8750 C   0  0  0  0  0  0  0  0  0  0  0  0
  -16.7031   16.6345  -33.4388 C   0  0  0  0  0  0  0  0  0  0  0  0
  -18.0149   16.1478  -33.4595 C   0  0  0  0  0  0  0  0  0  0  0  0
  1  2  1  0
  2  3  1  0
  3  4  2  0
  4  5  1  0
  5  6  2  0
  6  7  1  0
  7  8  1  0
  8  9  2  0
  9 10  1  0
 10 11  1  0
 11 12  1  0
 12 13  1  0
 13 14  2  0
 13 15  1  0
 15 16  1  0
 16 17  1  0
  9 18  1  0
 18 19  2  0
 19  3  1  0
 18  6  1  0
 17 15  1  0
M  END
$$$$
