
     RDKit          3D

 28 30  0  0  0  0  0  0  0  0999 V2000
  -16.0625   -0.7790  -38.4365 C   0  0  0  0  0  0  0  0  0  0  0  0
  -17.1919   -1.5201  -37.7565 C   0  0  0  0  0  0  0  0  0  0  0  0
  -16.6731   -2.8776  -37.3361 C   0  0  2  0  0  0  0  0  0  0  0  0
  -17.7014   -3.6063  -36.5002 C   0  0  0  0  0  0  0  0  0  0  0  0
  -15.3792   -2.7490  -36.6599 C   0  0  0  0  0  0  0  0  0  0  0  0
  -14.3815   -2.2236  -37.2582 O   0  0  0  0  0  0  0  0  0  0  0  0
  -15.1350   -3.1703  -35.3621 O   0  0  0  0  0  0  0  0  0  0  0  0
  -14.0957   -4.0176  -34.9808 C   0  0  1  0  0  0  0  0  0  0  0  0
  -12.9016   -3.8036  -35.8943 C   0  0  0  0  0  0  0  0  0  0  0  0
  -11.9236   -4.9499  -35.7177 C   0  0  0  0  0  0  0  0  0  0  0  0
  -11.7356   -5.2524  -34.2717 C   0  0  0  0  0  0  0  0  0  0  0  0
  -12.5506   -4.9017  -33.3314 C   0  0  0  0  0  0  0  0  0  0  0  0
  -12.3011   -5.2333  -31.9180 C   0  0  0  0  0  0  0  0  0  0  0  0
  -12.9135   -4.5106  -30.9675 C   0  0  0  0  0  0  0  0  0  0  0  0
  -13.8372   -3.3848  -31.2738 C   0  0  2  0  0  0  0  0  0  0  0  0
  -15.2362   -3.9115  -31.0408 C   0  0  0  0  0  0  0  0  0  0  0  0
  -13.6490   -2.9074  -32.7230 C   0  0  2  0  0  0  0  0  0  0  0  0
  -14.5285   -1.7646  -33.0046 C   0  0  0  0  0  0  0  0  0  0  0  0
  -14.3613   -0.6242  -32.0692 C   0  0  0  0  0  0  0  0  0  0  0  0
  -15.3238    0.4967  -32.1803 C   0  0  2  0  0  0  0  0  0  0  0  0
  -14.8112    1.7902  -31.5932 C   0  0  0  0  0  0  0  0  0  0  0  0
  -15.9143    2.8255  -31.6151 C   0  0  1  0  0  0  0  0  0  0  0  0
  -16.4753    2.9316  -32.9022 O   0  0  0  0  0  0  0  0  0  0  0  0
  -17.0151    2.3194  -30.7053 C   0  0  0  0  0  0  0  0  0  0  0  0
  -17.5658    1.0943  -31.3632 C   0  0  0  0  0  0  0  0  0  0  0  0
  -18.7942    0.9099  -31.5312 O   0  0  0  0  0  0  0  0  0  0  0  0
  -16.6174    0.1593  -31.7829 O   0  0  0  0  0  0  0  0  0  0  0  0
  -13.8030   -4.1330  -33.5522 C   0  0  1  0  0  0  0  0  0  0  0  0
  1  2  1  0
  2  3  1  0
  3  4  1  1
  3  5  1  0
  5  6  2  0
  5  7  1  0
  8  7  1  1
  8  9  1  0
  9 10  1  0
 10 11  1  0
 11 12  2  0
 12 13  1  0
 13 14  2  0
 14 15  1  0
 15 16  1  6
 15 17  1  0
 17 18  1  6
 18 19  1  0
 20 19  1  1
 20 21  1  0
 21 22  1  0
 22 23  1  6
 22 24  1  0
 24 25  1  0
 25 26  2  0
 25 27  1  0
 17 28  1  0
 28  8  1  0
 28 12  1  6
 27 20  1  0
M  END
$$$$
