
     RDKit          3D

 23 24  0  0  0  0  0  0  0  0999 V2000
  -19.2677   12.6498  -31.7941 C   0  0  0  0  0  0  0  0  0  0  0  0
  -17.9895   13.2382  -31.5424 C   0  0  0  0  0  0  0  0  0  0  0  0
  -17.7937   14.6713  -31.7724 C   0  0  0  0  0  0  0  0  0  0  0  0
  -18.3025   15.3030  -32.9220 N   0  0  0  0  0  0  0  0  0  0  0  0
  -18.0664   16.5970  -32.8927 N   0  0  0  0  0  0  0  0  0  0  0  0
  -18.2055   17.4615  -34.0401 C   0  0  0  0  0  0  0  0  0  0  0  0
  -19.7280   17.7353  -34.3182 C   0  0  0  0  0  0  0  0  0  0  0  0
  -19.8980   18.5518  -35.4153 O   0  0  0  0  0  0  0  0  0  0  0  0
  -17.4325   16.9074  -31.7261 C   0  0  0  0  0  0  0  0  0  0  0  0
  -17.2871   18.2526  -31.2261 C   0  0  0  0  0  0  0  0  0  0  0  0
  -16.1254   19.1210  -31.2642 C   0  0  0  0  0  0  0  0  0  0  0  0
  -17.2581   15.6801  -31.0620 C   0  0  0  0  0  0  0  0  0  0  0  0
  -16.5615   15.5581  -29.8527 O   0  0  0  0  0  0  0  0  0  0  0  0
  -15.4943   14.6746  -29.7010 C   0  0  0  0  0  0  0  0  0  0  0  0
  -15.2384   14.1000  -28.4802 C   0  0  0  0  0  0  0  0  0  0  0  0
  -14.0850   13.2308  -28.3027 C   0  0  0  0  0  0  0  0  0  0  0  0
  -13.6971   12.8788  -26.9948 C   0  0  0  0  0  0  0  0  0  0  0  0
  -13.3553   12.5821  -25.8239 N   0  0  0  0  0  0  0  0  0  0  0  0
  -13.2941   13.0223  -29.3849 C   0  0  0  0  0  0  0  0  0  0  0  0
  -13.5423   13.5668  -30.6337 C   0  0  0  0  0  0  0  0  0  0  0  0
  -12.6897   13.4088  -31.7357 C   0  0  0  0  0  0  0  0  0  0  0  0
  -11.9333   13.2639  -32.6809 N   0  0  0  0  0  0  0  0  0  0  0  0
  -14.6481   14.3878  -30.7141 C   0  0  0  0  0  0  0  0  0  0  0  0
  1  2  1  0
  2  3  1  0
  3  4  2  0
  4  5  1  0
  5  6  1  0
  6  7  1  0
  7  8  1  0
  5  9  1  0
  9 10  1  0
 10 11  1  0
  9 12  2  0
 12 13  1  0
 13 14  1  0
 14 15  2  0
 15 16  1  0
 16 17  1  0
 17 18  3  0
 16 19  2  0
 19 20  1  0
 20 21  1  0
 21 22  3  0
 20 23  2  0
 12  3  1  0
 23 14  1  0
M  END
$$$$
