
     RDKit          3D

 29 30  0  0  0  0  0  0  0  0999 V2000
  -18.0753   31.0048  -19.3396 O   0  0  0  0  0  0  0  0  0  0  0  0
  -18.1693   31.8852  -20.2288 C   0  0  0  0  0  0  0  0  0  0  0  0
  -17.5711   33.1054  -20.0297 O   0  0  0  0  0  0  0  0  0  0  0  0
  -18.9180   31.5888  -21.4623 C   0  0  0  0  0  0  0  0  0  0  0  0
  -19.3886   32.8539  -22.1546 C   0  0  0  0  0  0  0  0  0  0  0  0
  -19.0640   34.0815  -21.2918 C   0  0  0  0  0  0  0  0  0  0  0  0
  -18.1917   35.0216  -21.9824 C   0  0  0  0  0  0  0  0  0  0  0  0
  -18.4667   35.7179  -23.0521 C   0  0  0  0  0  0  0  0  0  0  0  0
  -18.4984   37.1728  -22.9995 C   0  0  0  0  0  0  0  0  0  0  0  0
  -18.7182   37.8222  -24.3464 C   0  0  1  0  0  0  0  0  0  0  0  0
  -19.7674   37.0727  -25.1628 C   0  0  1  0  0  0  0  0  0  0  0  0
  -20.9848   37.0034  -24.5054 O   0  0  0  0  0  0  0  0  0  0  0  0
  -19.9544   38.0553  -26.3208 C   0  0  0  0  0  0  0  0  0  0  0  0
  -19.7188   39.4294  -25.7296 C   0  0  1  0  0  0  0  0  0  0  0  0
  -20.8531   40.2348  -25.8082 O   0  0  0  0  0  0  0  0  0  0  0  0
  -19.3237   39.1806  -24.2685 C   0  0  2  0  0  0  0  0  0  0  0  0
  -18.4269   40.2234  -23.7581 C   0  0  0  0  0  0  0  0  0  0  0  0
  -17.9602   40.1449  -22.5335 C   0  0  0  0  0  0  0  0  0  0  0  0
  -16.9578   41.0780  -21.9570 C   0  0  1  0  0  0  0  0  0  0  0  0
  -17.0958   42.3016  -22.6109 O   0  0  0  0  0  0  0  0  0  0  0  0
  -17.2714   41.3536  -20.4799 C   0  0  0  0  0  0  0  0  0  0  0  0
  -16.0376   41.2930  -19.7905 O   0  0  0  0  0  0  0  0  0  0  0  0
  -15.3959   42.4874  -19.4820 C   0  0  0  0  0  0  0  0  0  0  0  0
  -14.1120   42.5193  -18.9712 C   0  0  0  0  0  0  0  0  0  0  0  0
  -13.4573   43.6947  -18.6584 C   0  0  0  0  0  0  0  0  0  0  0  0
  -14.1279   44.8909  -18.8704 C   0  0  0  0  0  0  0  0  0  0  0  0
  -15.4051   44.9129  -19.3761 C   0  0  0  0  0  0  0  0  0  0  0  0
  -16.2132   46.4260  -19.6284 Cl  0  0  0  0  0  0  0  0  0  0  0  0
  -16.0124   43.7076  -19.6715 C   0  0  0  0  0  0  0  0  0  0  0  0
  1  2  2  0
  2  3  1  0
  2  4  1  0
  4  5  1  0
  5  6  1  0
  6  7  1  0
  7  8  2  0
  8  9  1  0
 10  9  1  1
 10 11  1  0
 11 12  1  1
 11 13  1  0
 13 14  1  0
 14 15  1  1
 14 16  1  0
 16 17  1  6
 17 18  2  0
 18 19  1  0
 19 20  1  6
 19 21  1  0
 21 22  1  0
 22 23  1  0
 23 24  2  0
 24 25  1  0
 25 26  2  0
 26 27  1  0
 27 28  1  0
 27 29  2  0
 16 10  1  0
 29 23  1  0
M  END
$$$$
