
     RDKit          3D

 28 31  0  0  0  0  0  0  0  0999 V2000
  -20.0810   23.5004  -43.8040 O   0  0  0  0  0  0  0  0  0  0  0  0
  -21.0130   23.3725  -42.9675 C   0  0  0  0  0  0  0  0  0  0  0  0
  -22.2724   23.7566  -43.2088 N   0  0  0  0  0  0  0  0  0  0  0  0
  -23.2391   23.6065  -42.2983 C   0  0  0  0  0  0  0  0  0  0  0  0
  -22.9752   23.0594  -41.0989 N   0  0  0  0  0  0  0  0  0  0  0  0
  -23.9374   22.9104  -40.1935 N   0  0  0  0  0  0  0  0  0  0  0  0
  -23.7144   22.3678  -38.9823 C   0  0  0  0  0  0  0  0  0  0  0  0
  -25.0844   22.2287  -37.8730 S   0  0  0  0  0  0  0  0  0  0  0  0
  -25.8438   23.7617  -37.4915 C   0  0  0  0  0  0  0  0  0  0  0  0
  -25.5417   24.8834  -38.2256 C   0  0  0  0  0  0  0  0  0  0  0  0
  -26.1263   26.1212  -37.9513 C   0  0  0  0  0  0  0  0  0  0  0  0
  -27.0324   26.2064  -36.9095 C   0  0  0  0  0  0  0  0  0  0  0  0
  -27.5745   27.4283  -36.6801 F   0  0  0  0  0  0  0  0  0  0  0  0
  -27.3455   25.0915  -36.1648 C   0  0  0  0  0  0  0  0  0  0  0  0
  -26.7467   23.8651  -36.4597 C   0  0  0  0  0  0  0  0  0  0  0  0
  -27.1005   22.8048  -35.6852 F   0  0  0  0  0  0  0  0  0  0  0  0
  -22.4385   21.9591  -38.6896 C   0  0  0  0  0  0  0  0  0  0  0  0
  -21.4486   22.1115  -39.6189 C   0  0  0  0  0  0  0  0  0  0  0  0
  -21.6944   22.6634  -40.8402 C   0  0  0  0  0  0  0  0  0  0  0  0
  -20.6934   22.8073  -41.7548 C   0  0  0  0  0  0  0  0  0  0  0  0
  -19.3412   22.3744  -41.4453 C   0  0  0  0  0  0  0  0  0  0  0  0
  -18.9017   21.1403  -41.8687 C   0  0  0  0  0  0  0  0  0  0  0  0
  -19.9443   20.0489  -42.7905 Cl  0  0  0  0  0  0  0  0  0  0  0  0
  -17.6096   20.7756  -41.5495 C   0  0  0  0  0  0  0  0  0  0  0  0
  -16.7650   21.5867  -40.8377 C   0  0  0  0  0  0  0  0  0  0  0  0
  -17.2549   22.8140  -40.4368 C   0  0  0  0  0  0  0  0  0  0  0  0
  -18.5415   23.2207  -40.7338 C   0  0  0  0  0  0  0  0  0  0  0  0
  -19.0605   24.7983  -40.1761 Cl  0  0  0  0  0  0  0  0  0  0  0  0
  1  2  2  0
  2  3  1  0
  3  4  2  0
  4  5  1  0
  5  6  1  0
  6  7  2  0
  7  8  1  0
  8  9  1  0
  9 10  2  0
 10 11  1  0
 11 12  2  0
 12 13  1  0
 12 14  1  0
 14 15  2  0
 15 16  1  0
  7 17  1  0
 17 18  2  0
 18 19  1  0
 19 20  2  0
 20 21  1  0
 21 22  2  0
 22 23  1  0
 22 24  1  0
 24 25  2  0
 25 26  1  0
 26 27  2  0
 27 28  1  0
 20  2  1  0
 27 21  1  0
 19  5  1  0
 15  9  1  0
M  END
$$$$
