
     RDKit          3D

 35 36  0  0  0  0  0  0  0  0999 V2000
  -18.4855   -1.8933  -30.4597 O   0  0  0  0  0  0  0  0  0  0  0  0
  -17.7972   -1.6652  -31.4766 C   0  0  0  0  0  0  0  0  0  0  0  0
  -16.7958   -2.5268  -31.8028 O   0  0  0  0  0  1  0  0  0  0  0  0
  -18.1357   -0.4534  -32.2559 C   0  0  0  0  0  0  0  0  0  0  0  0
  -19.1697    0.3593  -31.8447 C   0  0  0  0  0  0  0  0  0  0  0  0
  -20.0580   -0.0973  -30.3757 Cl  0  0  0  0  0  0  0  0  0  0  0  0
  -19.5300    1.5052  -32.5351 C   0  0  0  0  0  0  0  0  0  0  0  0
  -20.8523    2.4864  -31.9532 Cl  0  0  0  0  0  0  0  0  0  0  0  0
  -18.8252    1.8331  -33.6676 C   0  0  0  0  0  0  0  0  0  0  0  0
  -19.2361    3.2679  -34.5786 Cl  0  0  0  0  0  0  0  0  0  0  0  0
  -17.7908    1.0261  -34.0847 C   0  0  0  0  0  0  0  0  0  0  0  0
  -16.9062    1.5059  -35.5721 Cl  0  0  0  0  0  0  0  0  0  0  0  0
  -17.4528   -0.0982  -33.3893 C   0  0  0  0  0  0  0  0  0  0  0  0
  -16.3649   -0.9337  -33.8409 C   0  0  0  0  0  0  0  0  0  0  0  0
  -15.0921   -0.6648  -33.3747 C   0  0  0  0  0  0  0  0  0  0  0  0
  -14.7674    0.3525  -32.4989 C   0  0  0  0  0  0  0  0  0  0  0  0
  -13.4705    0.5696  -32.0693 C   0  0  0  0  0  0  0  0  0  0  0  0
  -13.0482    2.1343  -30.7374 I   0  0  0  0  0  0  0  0  0  0  0  0
  -12.4669   -0.2799  -32.5487 C   0  0  0  0  0  0  0  0  0  0  0  0
  -11.2972   -0.0648  -32.1459 O   0  0  0  0  0  0  0  0  0  0  0  0
  -12.7475   -1.3138  -33.4291 C   0  0  0  0  0  0  0  0  0  0  0  0
  -11.1360   -2.5082  -34.0635 I   0  0  0  0  0  0  0  0  0  0  0  0
  -14.0400   -1.5434  -33.8678 C   0  0  0  0  0  0  0  0  0  0  0  0
  -14.3161   -2.5180  -34.7001 O   0  0  0  0  0  0  0  0  0  0  0  0
  -15.5637   -2.7327  -35.1179 C   0  0  0  0  0  0  0  0  0  0  0  0
  -15.8151   -3.7790  -36.0025 C   0  0  0  0  0  0  0  0  0  0  0  0
  -14.2079   -4.9749  -36.6391 I   0  0  0  0  0  0  0  0  0  0  0  0
  -17.0865   -4.0247  -36.4499 C   0  0  0  0  0  0  0  0  0  0  0  0
  -17.3400   -5.0705  -37.3345 O   0  0  0  0  0  1  0  0  0  0  0  0
  -18.1711   -3.2596  -36.0538 C   0  0  0  0  0  0  0  0  0  0  0  0
  -20.1252   -3.6201  -36.7277 I   0  0  0  0  0  0  0  0  0  0  0  0
  -17.9152   -2.2309  -35.1824 C   0  0  0  0  0  0  0  0  0  0  0  0
  -16.6378   -1.9681  -34.7202 C   0  0  0  0  0  0  0  0  0  0  0  0
  -16.4838   -0.9643  -33.6701 Na  0  0  0  0  0 15  0  0  0  0  0  0
  -16.4838   -0.9643  -33.6701 Na  0  0  0  0  0 15  0  0  0  0  0  0
  1  2  2  0
  2  3  1  0
  2  4  1  0
  4  5  2  0
  5  6  1  0
  5  7  1  0
  7  8  1  0
  7  9  2  0
  9 10  1  0
  9 11  1  0
 11 12  1  0
 11 13  2  0
 13 14  1  0
 14 15  2  0
 15 16  1  0
 16 17  2  0
 17 18  1  0
 17 19  1  0
 19 20  2  0
 19 21  1  0
 21 22  1  0
 21 23  2  0
 23 24  1  0
 24 25  1  0
 25 26  2  0
 26 27  1  0
 26 28  1  0
 28 29  1  0
 28 30  2  0
 30 31  1  0
 30 32  1  0
 32 33  2  0
 13  4  1  0
 33 14  1  0
 23 15  1  0
 33 25  1  0
M  CHG  4   3  -1  29  -1  34   1  35   1
M  END
$$$$
