
     RDKit          3D

 42 47  0  0  0  0  0  0  0  0999 V2000
  -15.3623   18.4882  -40.5793 C   0  0  0  0  0  0  0  0  0  0  0  0
  -16.3984   19.5449  -40.7237 C   0  0  0  0  0  0  0  0  0  0  0  0
  -16.5083   20.2577  -41.8948 C   0  0  0  0  0  0  0  0  0  0  0  0
  -17.4641   21.2580  -42.0772 C   0  0  0  0  0  0  0  0  0  0  0  0
  -18.3376   21.5530  -41.0527 C   0  0  0  0  0  0  0  0  0  0  0  0
  -19.3058   22.5583  -41.2302 C   0  0  0  0  0  0  0  0  0  0  0  0
  -19.3778   23.2861  -42.4393 N   0  0  0  0  0  0  0  0  0  0  0  0
  -20.3065   22.7992  -43.7793 S   0  0  0  0  0  6  0  0  0  0  0  0
  -21.6144   22.1858  -43.3055 O   0  0  0  0  0  0  0  0  0  0  0  0
  -20.7256   23.9889  -44.6285 O   0  0  0  0  0  0  0  0  0  0  0  0
  -19.5115   21.6626  -44.8285 C   0  0  0  0  0  0  0  0  0  0  0  0
  -20.0290   20.3778  -45.0327 C   0  0  0  0  0  0  0  0  0  0  0  0
  -19.3673   19.4957  -45.8530 C   0  0  0  0  0  0  0  0  0  0  0  0
  -18.2017   19.8341  -46.4874 C   0  0  0  0  0  0  0  0  0  0  0  0
  -17.6867   21.1026  -46.2882 C   0  0  0  0  0  0  0  0  0  0  0  0
  -18.3233   22.0015  -45.4775 C   0  0  0  0  0  0  0  0  0  0  0  0
  -17.6690   23.6118  -45.2266 Cl  0  0  0  0  0  0  0  0  0  0  0  0
  -20.1767   22.8500  -40.2129 C   0  0  0  0  0  0  0  0  0  0  0  0
  -20.0662   22.1241  -39.0188 C   0  0  0  0  0  0  0  0  0  0  0  0
  -19.1350   21.1412  -38.8164 C   0  0  0  0  0  0  0  0  0  0  0  0
  -18.2584   20.8559  -39.8558 C   0  0  0  0  0  0  0  0  0  0  0  0
  -17.2888   19.8665  -39.7195 C   0  0  0  0  0  0  0  0  0  0  0  0
  -17.2274   19.1913  -38.5320 O   0  0  0  0  0  0  0  0  0  0  0  0
  -18.0336   18.1561  -38.1398 C   0  0  0  0  0  0  0  0  0  0  0  0
  -19.0668   17.7426  -38.9445 N   0  0  0  0  0  0  0  0  0  0  0  0
  -19.8908   16.7440  -38.6282 C   0  0  0  0  0  0  0  0  0  0  0  0
  -19.7368   16.0579  -37.4370 C   0  0  0  0  0  0  0  0  0  0  0  0
  -18.7355   16.4318  -36.6187 C   0  0  0  0  0  0  0  0  0  0  0  0
  -17.8591   17.4981  -36.9617 C   0  0  0  0  0  0  0  0  0  0  0  0
  -16.8074   17.8269  -36.0130 C   0  0  0  0  0  0  0  0  0  0  0  0
  -16.3173   19.0661  -35.7734 C   0  0  0  0  0  0  0  0  0  0  0  0
  -15.2936   19.3047  -34.8464 C   0  0  0  0  0  0  0  0  0  0  0  0
  -14.8057   18.2505  -34.1928 N   0  0  0  0  0  0  0  0  0  0  0  0
  -15.2544   17.0021  -34.3915 C   0  0  0  0  0  0  0  0  0  0  0  0
  -14.6898   15.8935  -33.6594 N   0  0  0  0  0  0  0  0  0  0  0  0
  -15.0465   14.5433  -33.9875 C   0  0  1  0  0  0  0  0  0  0  0  0
  -13.8891   13.5831  -34.0230 C   0  0  0  0  0  0  0  0  0  0  0  0
  -14.3715   12.2040  -33.5526 C   0  0  0  0  0  0  0  0  0  0  0  0
  -14.5466   12.2982  -32.0565 C   0  0  0  0  0  0  0  0  0  0  0  0
  -15.2347   13.5298  -31.7628 N   0  0  0  0  0  0  0  0  0  0  0  0
  -15.9905   14.0298  -32.8962 C   0  0  0  0  0  0  0  0  0  0  0  0
  -16.2231   16.8274  -35.2778 N   0  0  0  0  0  0  0  0  0  0  0  0
  1  2  1  0
  2  3  2  0
  3  4  1  0
  4  5  2  0
  5  6  1  0
  6  7  1  0
  7  8  1  0
  8  9  2  0
  8 10  2  0
  8 11  1  0
 11 12  2  0
 12 13  1  0
 13 14  2  0
 14 15  1  0
 15 16  2  0
 16 17  1  0
  6 18  2  0
 18 19  1  0
 19 20  2  0
 20 21  1  0
 21 22  2  0
 22 23  1  0
 23 24  1  0
 24 25  2  0
 25 26  1  0
 26 27  2  0
 27 28  1  0
 28 29  2  0
 29 30  1  0
 30 31  2  0
 31 32  1  0
 32 33  2  0
 33 34  1  0
 34 35  1  0
 36 35  1  1
 36 37  1  0
 37 38  1  0
 38 39  1  0
 39 40  1  0
 40 41  1  0
 34 42  2  0
 22  2  1  0
 29 24  1  0
 42 30  1  0
 21  5  1  0
 41 36  1  0
 16 11  1  0
M  END
$$$$
