
     RDKit          3D

 22 24  0  0  0  0  0  0  0  0999 V2000
  -18.5081   44.7437  -25.8128 C   0  0  0  0  0  0  0  0  0  0  0  0
  -18.9150   44.4130  -24.5003 O   0  0  0  0  0  0  0  0  0  0  0  0
  -18.7010   43.0857  -24.0834 C   0  0  0  0  0  0  0  0  0  0  0  0
  -17.5088   42.4755  -24.3488 C   0  0  0  0  0  0  0  0  0  0  0  0
  -17.3029   41.1602  -23.9331 C   0  0  0  0  0  0  0  0  0  0  0  0
  -18.2315   40.4285  -23.2659 C   0  0  0  0  0  0  0  0  0  0  0  0
  -18.1004   39.0613  -22.7991 C   0  0  0  0  0  0  0  0  0  0  0  0
  -19.1464   38.2348  -22.9549 O   0  0  0  0  0  0  0  0  0  0  0  0
  -19.1112   36.9959  -22.5645 C   0  0  0  0  0  0  0  0  0  0  0  0
  -20.2035   36.1546  -22.7338 C   0  0  0  0  0  0  0  0  0  0  0  0
  -20.1543   34.8460  -22.3167 C   0  0  0  0  0  0  0  0  0  0  0  0
  -21.2777   34.0465  -22.5108 O   0  0  0  0  0  0  0  0  0  0  0  0
  -19.0166   34.3283  -21.7165 C   0  0  0  0  0  0  0  0  0  0  0  0
  -17.9295   35.1291  -21.5369 C   0  0  0  0  0  0  0  0  0  0  0  0
  -16.7510   34.6976  -20.9469 O   0  0  0  0  0  0  0  0  0  0  0  0
  -17.9948   36.4516  -21.9644 C   0  0  0  0  0  0  0  0  0  0  0  0
  -16.8883   37.2418  -21.7740 C   0  0  0  0  0  0  0  0  0  0  0  0
  -15.8339   36.8210  -21.2357 O   0  0  0  0  0  0  0  0  0  0  0  0
  -16.9827   38.5734  -22.2157 C   0  0  0  0  0  0  0  0  0  0  0  0
  -15.8479   39.3453  -22.0087 O   0  0  0  0  0  0  0  0  0  0  0  0
  -19.4431   41.0873  -23.0108 C   0  0  0  0  0  0  0  0  0  0  0  0
  -19.6692   42.3829  -23.4106 C   0  0  0  0  0  0  0  0  0  0  0  0
  1  2  1  0
  2  3  1  0
  3  4  2  0
  4  5  1  0
  5  6  2  0
  6  7  1  0
  7  8  1  0
  8  9  1  0
  9 10  2  0
 10 11  1  0
 11 12  1  0
 11 13  2  0
 13 14  1  0
 14 15  1  0
 14 16  2  0
 16 17  1  0
 17 18  2  0
 17 19  1  0
 19 20  1  0
  6 21  1  0
 21 22  2  0
 22  3  1  0
 19  7  2  0
 16  9  1  0
M  END
$$$$
