
     RDKit          3D

 26 29  0  0  0  0  0  0  0  0999 V2000
  -19.0641   17.3904  -34.1598 C   0  0  0  0  0  0  0  0  0  0  0  0
  -18.0516   17.6554  -35.2104 C   0  0  2  0  0  0  0  0  0  0  0  0
  -17.9011   19.1026  -35.5749 C   0  0  0  0  0  0  0  0  0  0  0  0
  -17.9787   19.3400  -37.0605 C   0  0  2  0  0  0  0  0  0  0  0  0
  -17.9075   20.6857  -37.3157 O   0  0  0  0  0  0  0  0  0  0  0  0
  -19.0458   18.6680  -37.7762 C   0  0  1  0  0  0  0  0  0  0  0  0
  -19.4107   17.2998  -37.2046 C   0  0  1  0  0  0  0  0  0  0  0  0
  -19.8885   16.4260  -38.3317 C   0  0  0  0  0  0  0  0  0  0  0  0
  -21.1307   17.0553  -38.9230 C   0  0  0  0  0  0  0  0  0  0  0  0
  -20.9766   18.5497  -39.1003 C   0  0  0  0  0  0  0  0  0  0  0  0
  -21.3854   19.0853  -40.2227 C   0  0  0  0  0  0  0  0  0  0  0  0
  -21.2937   20.5085  -40.5163 C   0  0  0  0  0  0  0  0  0  0  0  0
  -21.6935   20.9818  -41.5945 O   0  0  0  0  0  0  0  0  0  0  0  0
  -20.7023   21.3039  -39.4492 C   0  0  0  0  0  0  0  0  0  0  0  0
  -20.2911   20.7660  -38.3307 C   0  0  0  0  0  0  0  0  0  0  0  0
  -20.3649   19.3555  -38.0238 C   0  0  2  0  0  0  0  0  0  0  0  0
  -21.3065   19.1807  -36.8232 C   0  0  0  0  0  0  0  0  0  0  0  0
  -18.2224   16.8194  -36.4680 C   0  0  2  0  0  0  0  0  0  0  0  0
  -18.2602   15.4609  -35.8823 C   0  0  0  0  0  0  0  0  0  0  0  0
  -17.1320   15.5414  -34.8402 C   0  0  0  0  0  0  0  0  0  0  0  0
  -16.7427   17.0092  -34.7492 C   0  0  1  0  0  0  0  0  0  0  0  0
  -15.7625   17.2100  -35.7248 O   0  0  0  0  0  0  0  0  0  0  0  0
  -16.3262   17.4442  -33.4207 C   0  0  0  0  0  0  0  0  0  0  0  0
  -17.1196   17.9384  -32.6475 O   0  0  0  0  0  0  0  0  0  0  0  0
  -14.9254   17.2925  -32.9855 C   0  0  0  0  0  0  0  0  0  0  0  0
  -14.8672   16.9385  -31.6406 O   0  0  0  0  0  0  0  0  0  0  0  0
  2  1  1  1
  2  3  1  0
  3  4  1  0
  4  5  1  1
  6  4  1  1
  6  7  1  0
  7  8  1  6
  8  9  1  0
  9 10  1  0
 10 11  2  0
 11 12  1  0
 12 13  2  0
 12 14  1  0
 14 15  2  0
 15 16  1  0
 16 17  1  1
  7 18  1  0
 18 19  1  1
 19 20  1  0
 20 21  1  0
 21 22  1  6
 21 23  1  0
 23 24  2  0
 23 25  1  0
 25 26  1  0
 18  2  1  0
 21  2  1  0
 16  6  1  0
 16 10  1  0
M  END
$$$$
