
     RDKit          3D

 18 20  0  0  0  0  0  0  0  0999 V2000
   -0.0823    5.8004  -38.2751 C   0  0  0  0  0  0  0  0  0  0  0  0
    0.8537    5.6441  -39.2737 C   0  0  0  0  0  0  0  0  0  0  0  0
    2.0710    6.3220  -39.1338 C   0  0  0  0  0  0  0  0  0  0  0  0
    2.3306    7.1142  -38.0467 C   0  0  0  0  0  0  0  0  0  0  0  0
    3.5760    7.8363  -37.8569 C   0  0  0  0  0  0  0  0  0  0  0  0
    4.5619    7.8485  -38.8145 C   0  0  0  0  0  0  0  0  0  0  0  0
    5.7516    8.5309  -38.6481 C   0  0  0  0  0  0  0  0  0  0  0  0
    5.9549    9.2252  -37.4756 C   0  0  0  0  0  0  0  0  0  0  0  0
    4.9714    9.2228  -36.5011 C   0  0  0  0  0  0  0  0  0  0  0  0
    5.1186    9.9351  -35.2372 C   0  0  0  0  0  0  0  0  0  0  0  0
    4.1913    9.8327  -34.2431 C   0  0  0  0  0  0  0  0  0  0  0  0
    4.3740   10.5327  -33.0505 C   0  0  0  0  0  0  0  0  0  0  0  0
    5.4969   11.3213  -32.8971 C   0  0  0  0  0  0  0  0  0  0  0  0
    6.4021   11.4000  -33.9109 C   0  0  0  0  0  0  0  0  0  0  0  0
    6.1935   10.7100  -35.0495 N   0  0  0  0  0  0  0  0  0  0  0  0
    3.8350    8.5303  -36.7407 N   0  0  0  0  0  0  0  0  0  0  0  0
    1.3630    7.2120  -37.1186 N   0  0  0  0  0  0  0  0  0  0  0  0
    0.1912    6.6000  -37.1869 C   0  0  0  0  0  0  0  0  0  0  0  0
  1  2  2  0
  2  3  1  0
  3  4  2  0
  4  5  1  0
  5  6  2  0
  6  7  1  0
  7  8  2  0
  8  9  1  0
  9 10  1  0
 10 11  2  0
 11 12  1  0
 12 13  2  0
 13 14  1  0
 14 15  2  0
  9 16  2  0
  4 17  1  0
 17 18  2  0
 18  1  1  0
 16  5  1  0
 15 10  1  0
M  END
$$$$
