
     RDKit          3D

 34 34  0  0  0  0  0  0  0  0999 V2000
  -19.0838   16.9945  -34.6012 C   0  0  0  0  0  0  0  0  0  0  0  0
  -18.1384   16.9800  -35.6685 N   0  0  0  0  0  0  0  0  0  0  0  0
  -17.5526   18.2041  -36.0874 C   0  0  2  0  0  0  0  0  0  0  0  0
  -17.8939   18.5673  -37.4835 C   0  0  0  0  0  0  0  0  0  0  0  0
  -17.2502   18.0557  -38.4514 O   0  0  0  0  0  0  0  0  0  0  0  0
  -18.9127   19.4716  -37.8611 N   0  0  0  0  0  0  0  0  0  0  0  0
  -19.3826   19.5214  -39.2785 C   0  0  2  0  0  0  0  0  0  0  0  0
  -20.1008   20.7836  -39.5160 C   0  0  0  0  0  0  0  0  0  0  0  0
  -21.3745   20.6447  -39.6417 O   0  0  0  0  0  0  0  0  0  0  0  0
  -19.5349   22.0795  -39.6066 N   0  0  0  0  0  0  0  0  0  0  0  0
  -18.6339   22.3750  -40.7430 C   0  0  0  0  0  0  0  0  0  0  0  0
  -19.7728   23.1763  -38.7047 C   0  0  2  0  0  0  0  0  0  0  0  0
  -21.0468   23.1596  -38.0027 C   0  0  0  0  0  0  0  0  0  0  0  0
  -22.1005   23.6688  -38.6218 C   0  0  0  0  0  0  0  0  0  0  0  0
  -22.0541   24.1261  -40.0083 C   0  0  0  0  0  0  0  0  0  0  0  0
  -23.3582   23.7780  -37.8906 C   0  0  0  0  0  0  0  0  0  0  0  0
  -23.7759   22.8294  -37.1469 O   0  0  0  0  0  0  0  0  0  0  0  0
  -24.1547   24.9078  -37.9671 O   0  0  0  0  0  0  0  0  0  0  0  0
  -19.6560   24.4874  -39.4454 C   0  0  0  0  0  0  0  0  0  0  0  0
  -18.5214   25.3718  -39.1277 C   0  0  0  0  0  0  0  0  0  0  0  0
  -19.5705   24.1643  -40.9520 C   0  0  0  0  0  0  0  0  0  0  0  0
  -20.3751   18.3578  -39.3476 C   0  0  0  0  0  0  0  0  0  0  0  0
  -19.7804   17.0138  -39.1428 C   0  0  0  0  0  0  0  0  0  0  0  0
  -21.3774   18.5272  -38.1645 C   0  0  0  0  0  0  0  0  0  0  0  0
  -21.1870   18.3807  -40.6090 C   0  0  0  0  0  0  0  0  0  0  0  0
  -16.1150   18.4088  -35.7127 C   0  0  0  0  0  0  0  0  0  0  0  0
  -15.7622   19.8803  -35.9300 C   0  0  0  0  0  0  0  0  0  0  0  0
  -15.1442   17.5383  -36.4913 C   0  0  0  0  0  0  0  0  0  0  0  0
  -15.8637   18.1413  -34.2736 C   0  0  0  0  0  0  0  0  0  0  0  0
  -15.8278   19.1400  -33.3310 C   0  0  0  0  0  0  0  0  0  0  0  0
  -15.5886   18.8737  -31.9787 C   0  0  0  0  0  0  0  0  0  0  0  0
  -15.3803   17.5864  -31.5546 C   0  0  0  0  0  0  0  0  0  0  0  0
  -15.4142   16.5806  -32.4910 C   0  0  0  0  0  0  0  0  0  0  0  0
  -15.6541   16.8520  -33.8436 C   0  0  0  0  0  0  0  0  0  0  0  0
  1  2  1  0
  3  2  1  6
  3  4  1  0
  4  5  2  0
  4  6  1  0
  7  6  1  1
  7  8  1  0
  8  9  2  0
  8 10  1  0
 10 11  1  0
 10 12  1  0
 12 13  1  0
 13 14  2  0
 14 15  1  0
 14 16  1  0
 16 17  2  0
 16 18  1  0
 12 19  1  6
 19 20  1  0
 19 21  1  0
  7 22  1  0
 22 23  1  0
 22 24  1  0
 22 25  1  0
  3 26  1  0
 26 27  1  0
 26 28  1  0
 26 29  1  0
 29 30  2  0
 30 31  1  0
 31 32  2  0
 32 33  1  0
 33 34  2  0
 34 29  1  0
M  END
$$$$
