
     RDKit          3D

 38 41  0  0  0  0  0  0  0  0999 V2000
  -21.7201   21.8904  -32.6241 C   0  0  0  0  0  0  0  0  0  0  0  0
  -22.3932   20.7096  -31.9855 C   0  0  0  0  0  0  0  0  0  0  0  0
  -23.2301   20.8751  -30.9086 C   0  0  0  0  0  0  0  0  0  0  0  0
  -23.8486   19.7981  -30.3208 C   0  0  0  0  0  0  0  0  0  0  0  0
  -24.7211   19.9419  -29.2069 N   0  0  0  0  0  0  0  0  0  0  0  0
  -25.7978   19.0609  -28.9346 C   0  0  0  0  0  0  0  0  0  0  0  0
  -25.9081   18.0495  -29.6917 O   0  0  0  0  0  0  0  0  0  0  0  0
  -26.7562   19.2410  -27.8700 C   0  0  0  0  0  0  0  0  0  0  0  0
  -26.4426   20.0772  -26.8123 C   0  0  0  0  0  0  0  0  0  0  0  0
  -27.2961   20.3010  -25.7693 C   0  0  0  0  0  0  0  0  0  0  0  0
  -28.5382   19.6473  -25.7874 C   0  0  0  0  0  0  0  0  0  0  0  0
  -28.9003   18.8135  -26.8018 C   0  0  0  0  0  0  0  0  0  0  0  0
  -30.1377   18.1592  -26.8345 N   0  0  0  0  0  0  0  0  0  0  0  0
  -31.2423   18.3672  -27.6579 C   0  0  0  0  0  0  0  0  0  0  0  0
  -31.1550   19.2307  -28.5585 O   0  0  0  0  0  0  0  0  0  0  0  0
  -32.5030   17.6403  -27.5391 C   0  0  0  0  0  0  0  0  0  0  0  0
  -33.4198   17.5594  -28.4762 C   0  0  0  0  0  0  0  0  0  0  0  0
  -34.5658   16.6020  -28.4115 C   0  0  0  0  0  0  0  0  0  0  0  0
  -35.3602   16.6092  -29.6049 N   0  0  0  0  0  0  0  0  0  0  0  0
  -36.4038   15.6252  -29.6399 C   0  0  0  0  0  0  0  0  0  0  0  0
  -35.8064   17.9170  -29.9849 C   0  0  0  0  0  0  0  0  0  0  0  0
  -27.9814   18.6272  -27.8390 C   0  0  0  0  0  0  0  0  0  0  0  0
  -23.5963   18.5693  -30.8498 C   0  0  0  0  0  0  0  0  0  0  0  0
  -22.7443   18.3943  -31.9473 C   0  0  0  0  0  0  0  0  0  0  0  0
  -22.1127   19.4574  -32.5543 C   0  0  0  0  0  0  0  0  0  0  0  0
  -21.2458   19.3736  -33.6522 N   0  0  0  0  0  0  0  0  0  0  0  0
  -19.9719   18.7785  -33.7033 C   0  0  0  0  0  0  0  0  0  0  0  0
  -19.2520   18.6757  -34.8246 N   0  0  0  0  0  0  0  0  0  0  0  0
  -18.0490   18.1256  -34.9164 C   0  0  0  0  0  0  0  0  0  0  0  0
  -17.4724   17.6050  -33.7490 C   0  0  0  0  0  0  0  0  0  0  0  0
  -18.1787   17.6900  -32.5744 C   0  0  0  0  0  0  0  0  0  0  0  0
  -17.6056   17.1569  -31.3400 C   0  0  0  0  0  0  0  0  0  0  0  0
  -18.4533   16.5902  -30.3888 C   0  0  0  0  0  0  0  0  0  0  0  0
  -17.9757   16.0672  -29.1980 C   0  0  0  0  0  0  0  0  0  0  0  0
  -16.6218   16.1081  -28.9454 C   0  0  0  0  0  0  0  0  0  0  0  0
  -15.8076   16.6542  -29.8626 N   0  0  0  0  0  0  0  0  0  0  0  0
  -16.2689   17.1738  -31.0429 C   0  0  0  0  0  0  0  0  0  0  0  0
  -19.3895   18.2669  -32.5920 N   0  0  0  0  0  0  0  0  0  0  0  0
  1  2  1  0
  2  3  2  0
  3  4  1  0
  4  5  1  0
  5  6  1  0
  6  7  2  0
  6  8  1  0
  8  9  2  0
  9 10  1  0
 10 11  2  0
 11 12  1  0
 12 13  1  0
 13 14  1  0
 14 15  2  0
 14 16  1  0
 16 17  2  0
 17 18  1  0
 18 19  1  0
 19 20  1  0
 19 21  1  0
 12 22  2  0
  4 23  2  0
 23 24  1  0
 24 25  2  0
 25 26  1  0
 26 27  1  0
 27 28  2  0
 28 29  1  0
 29 30  2  0
 30 31  1  0
 31 32  1  0
 32 33  2  0
 33 34  1  0
 34 35  2  0
 35 36  1  0
 36 37  2  0
 31 38  2  0
 25  2  1  0
 38 27  1  0
 22  8  1  0
 37 32  1  0
M  END
$$$$
