
     RDKit          3D

 25 26  0  0  0  0  0  0  0  0999 V2000
  -17.3457   36.3646  -22.8811 O   0  0  0  0  0  0  0  0  0  0  0  0
  -18.4732   36.1964  -22.3060 C   0  0  0  0  0  0  0  0  0  0  0  0
  -19.1712   37.3296  -21.8517 N   0  0  0  0  0  0  0  0  0  0  0  0
  -18.7087   38.6477  -22.1311 C   0  0  0  0  0  0  0  0  0  0  0  0
  -19.5724   39.3081  -23.1698 C   0  0  0  0  0  0  0  0  0  0  0  0
  -19.0185   40.9911  -23.3152 S   0  0  0  0  0  6  0  0  0  0  0  0
  -20.1740   41.9434  -23.1991 O   0  0  0  0  0  0  0  0  0  0  0  0
  -18.4261   41.1672  -24.6806 O   0  0  0  0  0  0  0  0  0  0  0  0
  -17.8298   41.2831  -22.0526 C   0  0  0  0  0  0  0  0  0  0  0  0
  -16.5705   41.7951  -22.3425 C   0  0  0  0  0  0  0  0  0  0  0  0
  -15.6389   42.0232  -21.3480 C   0  0  0  0  0  0  0  0  0  0  0  0
  -15.9362   41.7465  -20.0295 C   0  0  0  0  0  0  0  0  0  0  0  0
  -14.9334   41.9893  -18.9387 C   0  0  0  0  0  0  0  0  0  0  0  0
  -15.4408   41.4024  -17.7952 F   0  0  0  0  0  0  0  0  0  0  0  0
  -14.8356   43.3488  -18.7104 F   0  0  0  0  0  0  0  0  0  0  0  0
  -13.6996   41.5211  -19.2777 F   0  0  0  0  0  0  0  0  0  0  0  0
  -17.1930   41.2393  -19.7707 C   0  0  0  0  0  0  0  0  0  0  0  0
  -18.0841   41.0256  -20.7580 N   0  0  0  0  0  0  0  0  0  0  0  0
  -19.0030   34.8696  -22.1348 C   0  0  0  0  0  0  0  0  0  0  0  0
  -20.3659   34.6976  -21.8956 C   0  0  0  0  0  0  0  0  0  0  0  0
  -20.9067   33.4410  -21.7270 C   0  0  0  0  0  0  0  0  0  0  0  0
  -20.1164   32.3133  -21.7896 C   0  0  0  0  0  0  0  0  0  0  0  0
  -20.8440   30.7245  -21.5691 Cl  0  0  0  0  0  0  0  0  0  0  0  0
  -18.7774   32.4614  -22.0234 C   0  0  0  0  0  0  0  0  0  0  0  0
  -18.2403   33.7430  -22.1929 C   0  0  0  0  0  0  0  0  0  0  0  0
  1  2  2  0
  2  3  1  0
  3  4  1  0
  4  5  1  0
  5  6  1  0
  6  7  2  0
  6  8  2  0
  6  9  1  0
  9 10  2  0
 10 11  1  0
 11 12  2  0
 12 13  1  0
 13 14  1  0
 13 15  1  0
 13 16  1  0
 12 17  1  0
 17 18  2  0
  2 19  1  0
 19 20  2  0
 20 21  1  0
 21 22  2  0
 22 23  1  0
 22 24  1  0
 24 25  2  0
 18  9  1  0
 25 19  1  0
M  END
$$$$
