
     RDKit          3D

 28 30  0  0  0  0  0  0  0  0999 V2000
  -13.8300   18.4603  -44.1649 C   0  0  0  0  0  0  0  0  0  0  0  0
  -13.1151   18.2021  -43.0048 O   0  0  0  0  0  0  0  0  0  0  0  0
  -11.7711   18.0480  -42.8691 C   0  0  0  0  0  0  0  0  0  0  0  0
  -10.9593   18.1518  -44.0033 C   0  0  0  0  0  0  0  0  0  0  0  0
   -9.5902   18.0055  -43.9308 C   0  0  0  0  0  0  0  0  0  0  0  0
   -8.7428   18.1121  -45.1083 C   0  0  0  0  0  0  0  0  0  0  0  0
   -9.0326   18.9336  -46.1806 C   0  0  0  0  0  0  0  0  0  0  0  0
   -8.0342   18.7836  -47.0957 N   0  0  0  0  0  0  0  0  0  0  0  0
   -7.1412   17.9167  -46.6544 N   0  0  0  0  0  0  0  0  0  0  0  0
   -7.5601   17.4936  -45.4345 C   0  0  0  0  0  0  0  0  0  0  0  0
   -9.0021   17.7502  -42.7105 C   0  0  0  0  0  0  0  0  0  0  0  0
   -9.7812   17.6452  -41.5890 C   0  0  0  0  0  0  0  0  0  0  0  0
  -11.1884   17.7952  -41.6618 C   0  0  0  0  0  0  0  0  0  0  0  0
  -11.8783   17.6558  -40.3957 C   0  0  0  0  0  0  0  0  0  0  0  0
  -11.1977   17.4213  -39.3525 O   0  0  0  0  0  0  0  0  0  0  0  0
  -13.2644   17.7621  -40.2323 N   0  0  0  0  0  0  0  0  0  0  0  0
  -13.9976   17.6365  -39.0298 C   0  0  0  0  0  0  0  0  0  0  0  0
  -15.3857   17.7799  -39.0810 C   0  0  0  0  0  0  0  0  0  0  0  0
  -16.1736   17.6705  -37.9538 C   0  0  0  0  0  0  0  0  0  0  0  0
  -15.5856   17.4124  -36.7360 C   0  0  0  0  0  0  0  0  0  0  0  0
  -14.2385   17.2702  -36.6673 C   0  0  0  0  0  0  0  0  0  0  0  0
  -13.4500   17.3860  -37.8335 C   0  0  0  0  0  0  0  0  0  0  0  0
  -13.4057   16.9928  -35.4769 C   0  0  0  0  0  0  0  0  0  0  0  0
  -13.9961   15.8550  -34.6766 C   0  0  0  0  0  0  0  0  0  0  0  0
  -15.2482   15.3796  -35.2290 N   0  0  0  0  0  0  0  0  0  0  0  0
  -16.3427   16.1998  -34.7087 C   0  0  0  0  0  0  0  0  0  0  0  0
  -16.6329   17.3383  -35.6714 C   0  0  0  0  0  0  0  0  0  0  0  0
  -12.3193   17.6004  -40.7796 Cl  0  0  0  0  0  0  0  0  0  0  0  0
  1  2  1  0
  2  3  1  0
  3  4  2  0
  4  5  1  0
  5  6  1  0
  6  7  1  0
  7  8  2  0
  8  9  1  0
  9 10  1  0
  5 11  2  0
 11 12  1  0
 12 13  2  0
 13 14  1  0
 14 15  2  0
 14 16  1  0
 16 17  1  0
 17 18  2  0
 18 19  1  0
 19 20  2  0
 20 21  1  0
 21 22  2  0
 21 23  1  0
 23 24  1  0
 24 25  1  0
 25 26  1  0
 26 27  1  0
 13  3  1  0
 22 17  1  0
 10  6  2  0
 27 20  1  0
M  END
$$$$
