
     RDKit          3D

 33 37  0  0  0  0  0  0  0  0999 V2000
  -22.0852   20.9512  -37.2156 C   0  0  0  0  0  0  0  0  0  0  0  0
  -22.5576   19.5718  -37.6160 C   0  0  0  0  0  0  0  0  0  0  0  0
  -24.0424   19.4516  -37.5243 C   0  0  0  0  0  0  0  0  0  0  0  0
  -22.1527   19.3602  -39.0682 C   0  0  0  0  0  0  0  0  0  0  0  0
  -21.3775   18.0976  -39.2534 C   0  0  0  0  0  0  0  0  0  0  0  0
  -20.1060   18.0304  -38.4100 C   0  0  2  0  0  0  0  0  0  0  0  0
  -19.0554   18.8356  -39.0957 C   0  0  0  0  0  0  0  0  0  0  0  0
  -18.6985   18.7185  -40.2764 O   0  0  0  0  0  0  0  0  0  0  0  0
  -18.4118   19.8127  -38.3406 O   0  0  0  0  0  0  0  0  0  0  0  0
  -19.7582   16.5779  -38.2717 C   0  0  0  0  0  0  0  0  0  0  0  0
  -18.5614   16.4389  -37.3751 C   0  0  0  0  0  0  0  0  0  0  0  0
  -19.0251   16.7214  -35.9431 C   0  0  2  0  0  0  0  0  0  0  0  0
  -20.0697   15.7181  -35.6032 C   0  0  0  0  0  0  0  0  0  0  0  0
  -19.5282   18.1389  -35.9655 C   0  0  0  0  0  0  0  0  0  0  0  0
  -19.2439   19.0062  -34.9983 C   0  0  0  0  0  0  0  0  0  0  0  0
  -18.4185   18.7039  -33.8044 C   0  0  0  0  0  0  0  0  0  0  0  0
  -18.2696   17.1811  -33.6787 C   0  0  2  0  0  0  0  0  0  0  0  0
  -17.4939   16.7929  -32.4804 C   0  0  1  0  0  0  0  0  0  0  0  0
  -16.6194   17.9178  -32.0079 C   0  0  0  0  0  0  0  0  0  0  0  0
  -18.5010   16.6067  -31.3275 C   0  0  0  0  0  0  0  0  0  0  0  0
  -18.0081   15.7767  -30.2204 C   0  0  0  0  0  0  0  0  0  0  0  0
  -16.5847   15.4649  -30.2024 C   0  0  0  0  0  0  0  0  0  0  0  0
  -15.9341   15.4436  -29.1779 O   0  0  0  0  0  0  0  0  0  0  0  0
  -15.8759   15.1567  -31.4744 C   0  0  0  0  0  0  0  0  0  0  0  0
  -15.6896   13.6304  -31.4745 C   0  0  0  0  0  0  0  0  0  0  0  0
  -14.5141   15.7551  -31.5622 C   0  0  0  0  0  0  0  0  0  0  0  0
  -16.7887   15.4765  -32.6007 C   0  0  2  0  0  0  0  0  0  0  0  0
  -16.1304   15.2761  -33.9597 C   0  0  0  0  0  0  0  0  0  0  0  0
  -17.3007   15.2422  -34.9546 C   0  0  0  0  0  0  0  0  0  0  0  0
  -17.8209   16.6599  -35.0017 C   0  0  1  0  0  0  0  0  0  0  0  0
  -16.7658   17.4875  -35.6788 C   0  0  0  0  0  0  0  0  0  0  0  0
  -20.3710   18.6480  -37.0789 C   0  0  2  0  0  0  0  0  0  0  0  0
  -21.8503   18.5083  -36.7652 C   0  0  0  0  0  0  0  0  0  0  0  0
  1  2  1  0
  2  3  1  0
  2  4  1  0
  4  5  1  0
  5  6  1  0
  6  7  1  6
  7  8  2  0
  7  9  1  0
  6 10  1  0
 10 11  1  0
 11 12  1  0
 12 13  1  1
 12 14  1  0
 14 15  2  0
 15 16  1  0
 17 16  1  6
 17 18  1  0
 18 19  1  1
 18 20  1  0
 20 21  1  0
 21 22  1  0
 22 23  2  0
 22 24  1  0
 24 25  1  0
 24 26  1  0
 24 27  1  0
 27 28  1  6
 28 29  1  0
 29 30  1  0
 30 31  1  6
 14 32  1  0
 32 33  1  1
 33  2  1  0
 32  6  1  0
 30 12  1  0
 30 17  1  0
 27 18  1  0
M  END
$$$$
