
     RDKit          3D

 22 25  0  0  0  0  0  0  0  0999 V2000
  -18.6388   34.0310  -22.5895 C   0  0  0  0  0  0  0  0  0  0  0  0
  -18.3250   35.0188  -21.6203 O   0  0  0  0  0  0  0  0  0  0  0  0
  -18.2311   36.3553  -22.0108 C   0  0  0  0  0  0  0  0  0  0  0  0
  -18.7429   36.7967  -23.2130 C   0  0  0  0  0  0  0  0  0  0  0  0
  -18.6274   38.1183  -23.5543 C   0  0  0  0  0  0  0  0  0  0  0  0
  -17.9972   38.9879  -22.6829 C   0  0  0  0  0  0  0  0  0  0  0  0
  -17.4741   38.5861  -21.4752 C   0  0  0  0  0  0  0  0  0  0  0  0
  -17.6057   37.2471  -21.1582 C   0  0  0  0  0  0  0  0  0  0  0  0
  -17.0973   36.7666  -19.9458 O   0  0  0  0  0  0  0  0  0  0  0  0
  -17.9143   40.4146  -23.1324 C   0  0  0  0  0  0  0  0  0  0  0  0
  -19.3605   40.8089  -23.4627 C   0  0  0  0  0  0  0  0  0  0  0  0
  -19.9219   39.9858  -24.5798 C   0  0  2  0  0  0  0  0  0  0  0  0
  -19.1330   38.6948  -24.8039 C   0  0  2  0  0  0  0  0  0  0  0  0
  -19.9709   37.7921  -25.6321 C   0  0  0  0  0  0  0  0  0  0  0  0
  -20.1873   38.4258  -26.9912 C   0  0  0  0  0  0  0  0  0  0  0  0
  -20.8118   39.7898  -26.8334 C   0  0  2  0  0  0  0  0  0  0  0  0
  -22.2363   39.7571  -26.4084 C   0  0  0  0  0  0  0  0  0  0  0  0
  -20.6923   40.6427  -28.0661 C   0  0  1  0  0  0  0  0  0  0  0  0
  -21.6801   40.3936  -28.9955 O   0  0  0  0  0  0  0  0  0  0  0  0
  -20.8242   42.0686  -27.5174 C   0  0  0  0  0  0  0  0  0  0  0  0
  -20.5650   41.9589  -26.0236 C   0  0  0  0  0  0  0  0  0  0  0  0
  -19.9400   40.6411  -25.8978 C   0  0  1  0  0  0  0  0  0  0  0  0
  1  2  1  0
  2  3  1  0
  3  4  2  0
  4  5  1  0
  5  6  2  0
  6  7  1  0
  7  8  2  0
  8  9  1  0
  6 10  1  0
 10 11  1  0
 12 11  1  1
 12 13  1  0
 13 14  1  1
 14 15  1  0
 15 16  1  0
 16 17  1  1
 16 18  1  0
 18 19  1  6
 18 20  1  0
 20 21  1  0
 22 21  1  1
  8  3  1  0
 22 12  1  0
 13  5  1  0
 22 16  1  0
M  END
$$$$
