
     RDKit          3D

 34 38  0  0  0  0  0  0  0  0999 V2000
  -29.4905   22.1976  -30.8367 C   0  0  0  0  0  0  0  0  0  0  0  0
  -30.3500   22.2775  -29.7171 O   0  0  0  0  0  0  0  0  0  0  0  0
  -30.1275   21.4451  -28.6294 C   0  0  0  0  0  0  0  0  0  0  0  0
  -30.1456   21.9421  -27.3346 C   0  0  0  0  0  0  0  0  0  0  0  0
  -29.9194   21.0789  -26.2802 C   0  0  0  0  0  0  0  0  0  0  0  0
  -29.6736   19.7323  -26.4542 C   0  0  0  0  0  0  0  0  0  0  0  0
  -29.6582   19.2491  -27.7529 C   0  0  0  0  0  0  0  0  0  0  0  0
  -29.4068   17.8607  -27.9425 N   0  0  0  0  0  0  0  0  0  0  0  0
  -28.1367   17.4283  -28.0233 C   0  0  0  0  0  0  0  0  0  0  0  0
  -26.7760   18.5619  -27.8996 S   0  0  0  0  0  0  0  0  0  0  0  0
  -25.1739   17.7112  -28.0805 C   0  0  0  0  0  0  0  0  0  0  0  0
  -24.9064   17.5676  -29.4985 C   0  0  0  0  0  0  0  0  0  0  0  0
  -25.2761   16.4116  -30.1562 C   0  0  0  0  0  0  0  0  0  0  0  0
  -24.9890   16.3455  -31.5092 C   0  0  0  0  0  0  0  0  0  0  0  0
  -25.2876   15.3232  -32.2120 O   0  0  0  0  0  0  0  0  0  0  0  0
  -24.3928   17.3280  -32.1531 O   0  0  0  0  0  0  0  0  0  0  0  0
  -24.0307   18.4444  -31.5399 C   0  0  0  0  0  0  0  0  0  0  0  0
  -23.4066   19.4886  -32.1851 C   0  0  0  0  0  0  0  0  0  0  0  0
  -23.0505   20.6400  -31.4803 C   0  0  0  0  0  0  0  0  0  0  0  0
  -22.4178   21.6746  -32.1825 O   0  0  0  0  0  0  0  0  0  0  0  0
  -23.3054   20.7748  -30.1312 C   0  0  0  0  0  0  0  0  0  0  0  0
  -22.9560   21.9141  -29.4199 O   0  0  0  0  0  0  0  0  0  0  0  0
  -23.9398   19.7163  -29.4696 C   0  0  0  0  0  0  0  0  0  0  0  0
  -24.2789   18.5942  -30.1911 C   0  0  0  0  0  0  0  0  0  0  0  0
  -27.9242   16.1148  -28.2011 N   0  0  0  0  0  0  0  0  0  0  0  0
  -28.9102   15.2079  -28.3033 C   0  0  0  0  0  0  0  0  0  0  0  0
  -28.6439   13.8570  -28.4873 C   0  0  0  0  0  0  0  0  0  0  0  0
  -29.6905   12.9766  -28.5849 C   0  0  0  0  0  0  0  0  0  0  0  0
  -30.9872   13.3960  -28.5056 C   0  0  0  0  0  0  0  0  0  0  0  0
  -31.2412   14.7290  -28.3241 C   0  0  0  0  0  0  0  0  0  0  0  0
  -30.2007   15.6442  -28.2217 C   0  0  0  0  0  0  0  0  0  0  0  0
  -30.4275   16.9875  -28.0394 C   0  0  0  0  0  0  0  0  0  0  0  0
  -31.6239   17.4010  -27.9625 O   0  0  0  0  0  0  0  0  0  0  0  0
  -29.8820   20.0952  -28.8210 C   0  0  0  0  0  0  0  0  0  0  0  0
  1  2  1  0
  2  3  1  0
  3  4  2  0
  4  5  1  0
  5  6  2  0
  6  7  1  0
  7  8  1  0
  8  9  1  0
  9 10  1  0
 10 11  1  0
 11 12  1  0
 12 13  2  0
 13 14  1  0
 14 15  2  0
 14 16  1  0
 16 17  1  0
 17 18  2  0
 18 19  1  0
 19 20  1  0
 19 21  2  0
 21 22  1  0
 21 23  1  0
 23 24  2  0
  9 25  2  0
 25 26  1  0
 26 27  2  0
 27 28  1  0
 28 29  2  0
 29 30  1  0
 30 31  2  0
 31 32  1  0
 32 33  2  0
  7 34  2  0
 34  3  1  0
 32  8  1  0
 24 12  1  0
 31 26  1  0
 24 17  1  0
M  END
$$$$
