
     RDKit          3D

 22 24  0  0  0  0  0  0  0  0999 V2000
  -23.5430   12.0482  -34.2208 C   0  0  0  0  0  0  0  0  0  0  0  0
  -22.3618   12.9156  -33.8898 C   0  0  0  0  0  0  0  0  0  0  0  0
  -21.5255   13.3778  -34.8830 C   0  0  0  0  0  0  0  0  0  0  0  0
  -20.4332   14.1742  -34.6262 C   0  0  0  0  0  0  0  0  0  0  0  0
  -20.1263   14.5501  -33.3265 C   0  0  0  0  0  0  0  0  0  0  0  0
  -19.0099   15.3707  -33.0236 N   0  0  0  0  0  0  0  0  0  0  0  0
  -18.3900   16.7091  -34.0543 S   0  0  0  0  0  0  0  0  0  0  0  0
  -17.0149   17.1463  -32.9021 C   0  0  0  0  0  0  0  0  0  0  0  0
  -16.2250   18.0359  -33.1074 O   0  0  0  0  0  0  0  0  0  0  0  0
  -17.2105   16.2560  -31.9413 N   0  0  0  0  0  0  0  0  0  0  0  0
  -16.2691   16.2687  -30.7639 C   0  0  0  0  0  0  0  0  0  0  0  0
  -15.2315   15.2558  -30.9214 C   0  0  0  0  0  0  0  0  0  0  0  0
  -15.0980   14.2527  -29.9808 C   0  0  0  0  0  0  0  0  0  0  0  0
  -14.1521   13.2645  -30.0525 C   0  0  0  0  0  0  0  0  0  0  0  0
  -13.2771   13.2419  -31.1008 C   0  0  0  0  0  0  0  0  0  0  0  0
  -12.3186   12.2748  -31.2112 F   0  0  0  0  0  0  0  0  0  0  0  0
  -13.3935   14.2450  -32.0624 C   0  0  0  0  0  0  0  0  0  0  0  0
  -14.3494   15.2358  -31.9810 C   0  0  0  0  0  0  0  0  0  0  0  0
  -18.1689   15.3845  -31.9745 C   0  0  0  0  0  0  0  0  0  0  0  0
  -18.4099   14.4811  -31.0534 O   0  0  0  0  0  0  0  0  0  0  0  0
  -20.9817   14.0740  -32.3363 C   0  0  0  0  0  0  0  0  0  0  0  0
  -22.0738   13.2779  -32.5928 C   0  0  0  0  0  0  0  0  0  0  0  0
  1  2  1  0
  2  3  2  0
  3  4  1  0
  4  5  2  0
  5  6  1  0
  6  7  1  0
  7  8  1  0
  8  9  2  0
  8 10  1  0
 10 11  1  0
 11 12  1  0
 12 13  2  0
 13 14  1  0
 14 15  2  0
 15 16  1  0
 15 17  1  0
 17 18  2  0
 10 19  1  0
 19 20  2  0
  5 21  1  0
 21 22  2  0
 22  2  1  0
 19  6  1  0
 18 12  1  0
M  END
$$$$
