
     RDKit          3D

 23 25  0  0  0  0  0  0  0  0999 V2000
  -17.1092   40.0899  -18.7707 C   0  0  0  0  0  0  0  0  0  0  0  0
  -17.1393   38.7881  -19.2863 O   0  0  0  0  0  0  0  0  0  0  0  0
  -17.5878   38.5565  -20.5791 C   0  0  0  0  0  0  0  0  0  0  0  0
  -18.4182   39.4566  -21.2412 C   0  0  0  0  0  0  0  0  0  0  0  0
  -18.8453   39.2058  -22.5119 C   0  0  0  0  0  0  0  0  0  0  0  0
  -18.4403   38.0427  -23.1318 C   0  0  0  0  0  0  0  0  0  0  0  0
  -17.6143   37.1478  -22.4730 C   0  0  0  0  0  0  0  0  0  0  0  0
  -17.1778   37.3908  -21.1921 C   0  0  0  0  0  0  0  0  0  0  0  0
  -16.3367   36.4957  -20.5002 O   0  0  0  0  0  0  0  0  0  0  0  0
  -16.2243   35.1934  -21.0394 C   0  0  0  0  0  0  0  0  0  0  0  0
  -18.9279   37.7948  -24.5118 C   0  0  0  0  0  0  0  0  0  0  0  0
  -20.2761   37.1379  -24.3911 C   0  0  0  0  0  0  0  0  0  0  0  0
  -21.1836   37.5078  -25.5096 C   0  0  0  0  0  0  0  0  0  0  0  0
  -22.3779   37.4429  -25.2920 O   0  0  0  0  0  0  0  0  0  0  0  0
  -20.5576   37.9176  -26.7742 C   0  0  0  0  0  0  0  0  0  0  0  0
  -21.5347   38.4761  -27.7854 C   0  0  0  0  0  0  0  0  0  0  0  0
  -21.2973   39.9079  -28.1259 C   0  0  0  0  0  0  0  0  0  0  0  0
  -19.8806   40.3020  -27.7650 C   0  0  0  0  0  0  0  0  0  0  0  0
  -22.2039   40.7313  -27.1994 C   0  0  0  0  0  0  0  0  0  0  0  0
  -19.5194   38.9604  -26.5443 C   0  0  0  0  0  0  0  0  0  0  0  0
  -18.8793   38.9572  -25.2794 N   0  0  0  0  0  0  0  0  0  0  0  0
  -19.0037   40.2231  -24.6515 C   0  0  0  0  0  0  0  0  0  0  0  0
  -19.7265   40.1006  -23.3110 C   0  0  0  0  0  0  0  0  0  0  0  0
  1  2  1  0
  2  3  1  0
  3  4  2  0
  4  5  1  0
  5  6  2  0
  6  7  1  0
  7  8  2  0
  8  9  1  0
  9 10  1  0
  6 11  1  0
 11 12  1  0
 12 13  1  0
 13 14  2  0
 13 15  1  0
 15 16  1  0
 16 17  1  0
 17 18  1  0
 17 19  1  0
 15 20  1  0
 20 21  1  0
 21 22  1  0
 22 23  1  0
  8  3  1  0
 21 11  1  0
 23  5  1  0
M  END
$$$$
