
     RDKit          3D

 29 33  0  0  0  0  0  0  0  0999 V2000
  -18.5552   24.3987  -38.3592 C   0  0  0  0  0  0  0  0  0  0  0  0
  -19.1323   23.0033  -38.4303 C   0  0  0  0  0  0  0  0  0  0  0  0
  -20.4510   22.9533  -39.1124 C   0  0  0  0  0  0  0  0  0  0  0  0
  -21.5380   23.6681  -38.5911 C   0  0  0  0  0  0  0  0  0  0  0  0
  -22.7572   23.6209  -39.2186 C   0  0  0  0  0  0  0  0  0  0  0  0
  -22.9813   22.9033  -40.3459 N   0  0  0  0  0  0  0  0  0  0  0  0
  -21.9465   22.2144  -40.8535 C   0  0  0  0  0  0  0  0  0  0  0  0
  -22.1921   21.4767  -42.0181 C   0  0  0  0  0  0  0  0  0  0  0  0
  -21.1689   20.7548  -42.5779 C   0  0  0  0  0  0  0  0  0  0  0  0
  -19.9286   20.7596  -42.0016 C   0  0  0  0  0  0  0  0  0  0  0  0
  -18.9313   20.0193  -42.5995 O   0  0  0  0  0  0  0  0  0  0  0  0
  -19.6988   21.5035  -40.8348 C   0  0  0  0  0  0  0  0  0  0  0  0
  -20.7008   22.2317  -40.2570 C   0  0  0  0  0  0  0  0  0  0  0  0
  -23.6569   24.4678  -38.4316 C   0  0  0  0  0  0  0  0  0  0  0  0
  -25.0002   24.7884  -38.5977 C   0  0  0  0  0  0  0  0  0  0  0  0
  -25.6669   25.6303  -37.7134 C   0  0  0  0  0  0  0  0  0  0  0  0
  -24.9792   26.1581  -36.6483 C   0  0  0  0  0  0  0  0  0  0  0  0
  -23.6498   25.8189  -36.5150 C   0  0  0  0  0  0  0  0  0  0  0  0
  -23.0153   26.3015  -35.5388 O   0  0  0  0  0  0  0  0  0  0  0  0
  -23.0085   24.9889  -37.3942 N   0  0  0  0  0  0  0  0  0  0  0  0
  -21.6286   24.5265  -37.4079 C   0  0  0  0  0  0  0  0  0  0  0  0
  -25.6188   27.0742  -35.6414 C   0  0  0  0  0  0  0  0  0  0  0  0
  -26.9403   27.3330  -35.9539 O   0  0  0  0  0  0  0  0  0  0  0  0
  -27.6142   26.9843  -37.1049 C   0  0  0  0  0  0  0  0  0  0  0  0
  -28.6918   27.5698  -37.4534 O   0  0  0  0  0  0  0  0  0  0  0  0
  -27.0991   25.9241  -37.9589 C   0  0  1  0  0  0  0  0  0  0  0  0
  -27.3258   26.2270  -39.3072 O   0  0  0  0  0  0  0  0  0  0  0  0
  -27.8423   24.6113  -37.6654 C   0  0  0  0  0  0  0  0  0  0  0  0
  -29.3265   24.8572  -37.8212 C   0  0  0  0  0  0  0  0  0  0  0  0
  1  2  1  0
  2  3  1  0
  3  4  2  0
  4  5  1  0
  5  6  2  0
  6  7  1  0
  7  8  2  0
  8  9  1  0
  9 10  2  0
 10 11  1  0
 10 12  1  0
 12 13  2  0
  5 14  1  0
 14 15  2  0
 15 16  1  0
 16 17  2  0
 17 18  1  0
 18 19  2  0
 18 20  1  0
 20 21  1  0
 17 22  1  0
 22 23  1  0
 23 24  1  0
 24 25  2  0
 24 26  1  0
 26 27  1  6
 26 28  1  0
 28 29  1  0
 13  3  1  0
 20 14  1  0
 21  4  1  0
 13  7  1  0
 26 16  1  0
M  END
$$$$
