
     RDKit          3D

 31 34  0  0  0  0  0  0  0  0999 V2000
  -15.8206   20.0470  -42.1425 N   0  0  0  0  0  0  0  0  0  0  0  0
  -14.8920   19.4307  -41.9060 C   0  0  0  0  0  0  0  0  0  0  0  0
  -13.6706   18.6478  -41.6094 C   0  0  0  0  0  0  0  0  0  0  0  0
  -13.6851   18.3681  -40.1670 N   0  0  0  0  0  0  0  0  0  0  0  0
  -14.8930   18.1795  -39.4594 C   0  0  0  0  0  0  0  0  0  0  0  0
  -15.9910   18.2928  -40.0379 O   0  0  0  0  0  0  0  0  0  0  0  0
  -14.8541   17.8469  -38.0461 C   0  0  0  0  0  0  0  0  0  0  0  0
  -13.9237   16.9532  -37.5807 C   0  0  0  0  0  0  0  0  0  0  0  0
  -13.9314   16.6178  -36.2512 C   0  0  0  0  0  0  0  0  0  0  0  0
  -14.8624   17.1667  -35.3648 C   0  0  0  0  0  0  0  0  0  0  0  0
  -14.7835   16.7474  -33.9574 C   0  0  0  0  0  0  0  0  0  0  0  0
  -13.6253   16.7902  -33.2471 C   0  0  0  0  0  0  0  0  0  0  0  0
  -13.6147   16.4227  -31.9076 C   0  0  0  0  0  0  0  0  0  0  0  0
  -14.7764   16.0265  -31.3478 N   0  0  0  0  0  0  0  0  0  0  0  0
  -15.9231   15.9696  -32.0032 C   0  0  0  0  0  0  0  0  0  0  0  0
  -17.1594   15.5502  -31.4380 N   0  0  0  0  0  0  0  0  0  0  0  0
  -18.3597   15.4785  -32.1659 C   0  0  0  0  0  0  0  0  0  0  0  0
  -19.4655   14.7391  -31.8402 C   0  0  0  0  0  0  0  0  0  0  0  0
  -20.6223   14.6853  -32.6128 C   0  0  0  0  0  0  0  0  0  0  0  0
  -20.6797   15.4068  -33.7707 C   0  0  0  0  0  0  0  0  0  0  0  0
  -21.7940   15.4327  -34.6361 N   0  0  0  0  0  0  0  0  0  0  0  0
  -22.3022   16.6388  -35.2474 C   0  0  0  0  0  0  0  0  0  0  0  0
  -23.8167   16.6012  -34.9801 C   0  0  0  0  0  0  0  0  0  0  0  0
  -24.4286   15.5017  -35.5198 O   0  0  0  0  0  0  0  0  0  0  0  0
  -23.5885   14.4933  -35.9308 C   0  0  0  0  0  0  0  0  0  0  0  0
  -22.4819   14.1991  -34.9495 C   0  0  0  0  0  0  0  0  0  0  0  0
  -19.5671   16.1611  -34.1134 C   0  0  0  0  0  0  0  0  0  0  0  0
  -18.4399   16.2143  -33.3616 C   0  0  0  0  0  0  0  0  0  0  0  0
  -15.8993   16.3396  -33.3187 N   0  0  0  0  0  0  0  0  0  0  0  0
  -15.7854   18.0580  -35.8315 C   0  0  0  0  0  0  0  0  0  0  0  0
  -15.7809   18.3962  -37.1649 C   0  0  0  0  0  0  0  0  0  0  0  0
  1  2  3  0
  2  3  1  0
  3  4  1  0
  4  5  1  0
  5  6  2  0
  5  7  1  0
  7  8  2  0
  8  9  1  0
  9 10  2  0
 10 11  1  0
 11 12  2  0
 12 13  1  0
 13 14  2  0
 14 15  1  0
 15 16  1  0
 16 17  1  0
 17 18  2  0
 18 19  1  0
 19 20  2  0
 20 21  1  0
 21 22  1  0
 22 23  1  0
 23 24  1  0
 24 25  1  0
 25 26  1  0
 20 27  1  0
 27 28  2  0
 15 29  2  0
 10 30  1  0
 30 31  2  0
 31  7  1  0
 29 11  1  0
 28 17  1  0
 26 21  1  0
M  END
$$$$
