
     RDKit          3D

 26 27  0  0  0  0  0  0  0  0999 V2000
  -19.5887   19.6545  -32.9204 O   0  0  0  0  0  0  0  0  0  0  0  0
  -18.8939   19.3693  -31.9159 C   0  0  0  0  0  0  0  0  0  0  0  0
  -19.3805   19.6974  -30.6405 N   0  0  0  0  0  0  0  0  0  0  0  0
  -20.6263   20.2335  -30.5302 O   0  0  0  0  0  0  0  0  0  0  0  0
  -20.6087   21.3809  -29.7348 C   0  0  0  0  0  0  0  0  0  0  0  0
  -21.9124   22.1270  -29.9219 C   0  0  2  0  0  0  0  0  0  0  0  0
  -22.1166   22.5155  -31.2297 O   0  0  0  0  0  0  0  0  0  0  0  0
  -21.9027   23.2907  -28.9595 C   0  0  0  0  0  0  0  0  0  0  0  0
  -22.5154   23.0254  -27.7629 O   0  0  0  0  0  0  0  0  0  0  0  0
  -17.6241   18.7170  -32.1000 C   0  0  0  0  0  0  0  0  0  0  0  0
  -16.6430   18.7554  -31.1354 C   0  0  0  0  0  0  0  0  0  0  0  0
  -15.4111   18.1201  -31.3191 C   0  0  0  0  0  0  0  0  0  0  0  0
  -15.1876   17.4464  -32.4924 C   0  0  0  0  0  0  0  0  0  0  0  0
  -14.0226   16.8255  -32.7075 F   0  0  0  0  0  0  0  0  0  0  0  0
  -16.1737   17.3980  -33.4822 C   0  0  0  0  0  0  0  0  0  0  0  0
  -15.8760   16.7086  -34.6205 F   0  0  0  0  0  0  0  0  0  0  0  0
  -17.3731   18.0227  -33.2905 C   0  0  0  0  0  0  0  0  0  0  0  0
  -18.3735   17.9824  -34.2764 N   0  0  0  0  0  0  0  0  0  0  0  0
  -19.1001   16.8029  -34.5898 C   0  0  0  0  0  0  0  0  0  0  0  0
  -18.8416   15.6139  -33.9656 C   0  0  0  0  0  0  0  0  0  0  0  0
  -19.5720   14.4722  -34.2946 C   0  0  0  0  0  0  0  0  0  0  0  0
  -20.5712   14.5089  -35.2544 C   0  0  0  0  0  0  0  0  0  0  0  0
  -21.6989   12.8260  -35.7876 I   0  0  0  0  0  0  0  0  0  0  0  0
  -20.8274   15.7205  -35.8837 C   0  0  0  0  0  0  0  0  0  0  0  0
  -20.0927   16.8273  -35.5394 C   0  0  0  0  0  0  0  0  0  0  0  0
  -20.3674   17.9925  -36.1714 F   0  0  0  0  0  0  0  0  0  0  0  0
  1  2  2  0
  2  3  1  0
  3  4  1  0
  4  5  1  0
  5  6  1  0
  6  7  1  6
  6  8  1  0
  8  9  1  0
  2 10  1  0
 10 11  2  0
 11 12  1  0
 12 13  2  0
 13 14  1  0
 13 15  1  0
 15 16  1  0
 15 17  2  0
 17 18  1  0
 18 19  1  0
 19 20  2  0
 20 21  1  0
 21 22  2  0
 22 23  1  0
 22 24  1  0
 24 25  2  0
 25 26  1  0
 17 10  1  0
 25 19  1  0
M  END
$$$$
