
     RDKit          3D

 15 15  0  0  0  0  0  0  0  0999 V2000
   -7.8505   17.5663  -40.9769 C   0  0  0  0  0  0  0  0  0  0  0  0
   -9.1323   17.8260  -41.4772 O   0  0  0  0  0  0  0  0  0  0  0  0
  -10.3263   17.5728  -40.8314 C   0  0  0  0  0  0  0  0  0  0  0  0
  -10.3981   17.0182  -39.5762 C   0  0  0  0  0  0  0  0  0  0  0  0
  -11.6203   16.7712  -38.9471 C   0  0  0  0  0  0  0  0  0  0  0  0
  -12.8102   17.0782  -39.5695 C   0  0  0  0  0  0  0  0  0  0  0  0
  -14.1147   16.9501  -39.2149 N   0  0  0  0  0  0  0  0  0  0  0  0
  -14.9040   17.4043  -40.1978 C   0  0  0  0  0  0  0  0  0  0  0  0
  -14.0665   17.8331  -41.2073 C   0  0  0  0  0  0  0  0  0  0  0  0
  -14.5317   18.4155  -42.5001 C   0  0  0  0  0  0  0  0  0  0  0  0
  -15.9415   18.9260  -42.2688 C   0  0  0  0  0  0  0  0  0  0  0  0
  -16.5221   19.5241  -43.4551 N   0  0  0  0  0  4  0  0  0  0  0  0
  -12.7493   17.6359  -40.8298 C   0  0  0  0  0  0  0  0  0  0  0  0
  -11.5307   17.8806  -41.4532 C   0  0  0  0  0  0  0  0  0  0  0  0
  -12.8538   17.9401  -41.1642 Cl  0  0  0  0  0 15  0  0  0  0  0  0
  1  2  1  0
  2  3  1  0
  3  4  2  0
  4  5  1  0
  5  6  2  0
  6  7  1  0
  7  8  1  0
  8  9  2  0
  9 10  1  0
 10 11  1  0
 11 12  1  0
  9 13  1  0
 13 14  2  0
 14  3  1  0
 13  6  1  0
M  CHG  2  12   1  15  -1
M  END
$$$$
