
     RDKit          3D

 20 21  0  0  0  0  0  0  0  0999 V2000
  -18.4198   38.5402  -22.7299 Cl  0  0  0  0  0  0  0  0  0  0  0  0
  -19.0083   42.6208  -19.5107 O   0  0  0  0  0  0  0  0  0  0  0  0
  -19.0133   41.6240  -20.5066 C   0  0  0  0  0  0  0  0  0  0  0  0
  -19.2391   41.9924  -21.8113 C   0  0  0  0  0  0  0  0  0  0  0  0
  -19.2477   41.0307  -22.7991 C   0  0  0  0  0  0  0  0  0  0  0  0
  -19.0312   39.7120  -22.4760 C   0  0  0  0  0  0  0  0  0  0  0  0
  -18.8058   39.3420  -21.1763 C   0  0  0  0  0  0  0  0  0  0  0  0
  -18.7990   40.2994  -20.2058 C   0  0  0  0  0  0  0  0  0  0  0  0
  -18.5750   39.9674  -18.8790 O   0  0  0  0  0  0  0  0  0  0  0  0
  -19.0205   38.6052  -23.4591 C   0  0  0  0  0  0  0  0  0  0  0  0
  -18.3795   37.3731  -23.0102 C   0  0  0  0  0  0  0  0  0  0  0  0
  -19.1803   36.4058  -22.4385 C   0  0  0  0  0  0  0  0  0  0  0  0
  -18.6991   35.2036  -21.9754 C   0  0  0  0  0  0  0  0  0  0  0  0
  -17.3549   34.9263  -22.0752 C   0  0  0  0  0  0  0  0  0  0  0  0
  -16.5641   35.9038  -22.6498 C   0  0  0  0  0  0  0  0  0  0  0  0
  -17.0334   37.1096  -23.1166 C   0  0  0  0  0  0  0  0  0  0  0  0
  -18.3128   39.0769  -24.7312 C   0  0  0  0  0  0  0  0  0  0  0  0
  -17.5332   40.2619  -24.5130 N   0  0  0  0  0  0  0  0  0  0  0  0
  -18.2137   41.4700  -24.9330 C   0  0  0  0  0  0  0  0  0  0  0  0
  -19.5122   41.6450  -24.1600 C   0  0  0  0  0  0  0  0  0  0  0  0
  2  3  1  0
  3  4  2  0
  4  5  1  0
  5  6  2  0
  6  7  1  0
  7  8  2  0
  8  9  1  0
  6 10  1  0
 10 11  1  0
 11 12  2  0
 12 13  1  0
 13 14  2  0
 14 15  1  0
 15 16  2  0
 10 17  1  0
 17 18  1  0
 18 19  1  0
 19 20  1  0
  8  3  1  0
 16 11  1  0
 20  5  1  0
M  END
$$$$
