
     RDKit          3D

 34 37  0  0  0  0  0  0  0  0999 V2000
  -19.4273   20.3758  -31.1720 C   0  0  0  0  0  0  0  0  0  0  0  0
  -18.0772   19.9980  -31.6454 C   0  0  0  0  0  0  0  0  0  0  0  0
  -16.9906   20.5450  -30.9826 C   0  0  0  0  0  0  0  0  0  0  0  0
  -15.6947   20.2555  -31.3358 C   0  0  0  0  0  0  0  0  0  0  0  0
  -15.5278   19.3893  -32.3871 C   0  0  0  0  0  0  0  0  0  0  0  0
  -16.6068   18.8498  -33.0405 C   0  0  0  0  0  0  0  0  0  0  0  0
  -17.9445   19.1316  -32.6979 C   0  0  0  0  0  0  0  0  0  0  0  0
  -19.0405   18.4833  -33.4513 C   0  0  0  0  0  0  0  0  0  0  0  0
  -19.0271   18.6258  -34.9099 C   0  0  0  0  0  0  0  0  0  0  0  0
  -18.0954   18.1663  -35.5972 O   0  0  0  0  0  0  0  0  0  0  0  0
  -20.0717   19.2859  -35.6529 N   0  0  0  0  0  0  0  0  0  0  0  0
  -19.9695   19.5239  -37.0740 C   0  0  0  0  0  0  0  0  0  0  0  0
  -20.4729   20.9163  -37.4402 C   0  0  0  0  0  0  0  0  0  0  0  0
  -20.7708   21.0300  -38.9035 C   0  0  0  0  0  0  0  0  0  0  0  0
  -20.1421   19.9059  -39.7065 C   0  0  0  0  0  0  0  0  0  0  0  0
  -20.6040   18.5514  -39.2504 C   0  0  0  0  0  0  0  0  0  0  0  0
  -20.9150   18.5467  -37.7732 C   0  0  0  0  0  0  0  0  0  0  0  0
  -18.9874   17.0039  -33.1397 N   0  0  0  0  0  0  0  0  0  0  0  0
  -20.1428   16.2679  -32.9487 C   0  0  0  0  0  0  0  0  0  0  0  0
  -21.2520   16.9602  -32.9941 O   0  0  0  0  0  0  0  0  0  0  0  0
  -20.3877   14.8524  -32.7025 C   0  0  0  0  0  0  0  0  0  0  0  0
  -21.6485   14.4290  -32.2081 N   0  0  0  0  0  0  0  0  0  0  0  0
  -22.0488   14.3480  -30.9019 C   0  0  0  0  0  0  0  0  0  0  0  0
  -23.3191   13.8719  -30.8053 C   0  0  0  0  0  0  0  0  0  0  0  0
  -23.7133   13.6542  -32.0687 N   0  0  0  0  0  0  0  0  0  0  0  0
  -22.7251   13.9831  -32.9083 C   0  0  0  0  0  0  0  0  0  0  0  0
  -22.8072   13.8726  -34.3765 C   0  0  0  0  0  0  0  0  0  0  0  0
  -17.6763   16.4921  -33.0258 C   0  0  0  0  0  0  0  0  0  0  0  0
  -16.7886   16.3949  -34.0669 C   0  0  0  0  0  0  0  0  0  0  0  0
  -15.4919   15.9065  -33.8808 C   0  0  0  0  0  0  0  0  0  0  0  0
  -15.0629   15.5070  -32.6461 C   0  0  0  0  0  0  0  0  0  0  0  0
  -15.9608   15.6078  -31.6051 C   0  0  0  0  0  0  0  0  0  0  0  0
  -15.5551   15.2165  -30.3707 F   0  0  0  0  0  0  0  0  0  0  0  0
  -17.2290   16.0810  -31.7654 C   0  0  0  0  0  0  0  0  0  0  0  0
  1  2  1  0
  2  3  2  0
  3  4  1  0
  4  5  2  0
  5  6  1  0
  6  7  2  0
  7  8  1  0
  8  9  1  0
  9 10  2  0
  9 11  1  0
 11 12  1  0
 12 13  1  0
 13 14  1  0
 14 15  1  0
 15 16  1  0
 16 17  1  0
  8 18  1  0
 18 19  1  0
 19 20  2  0
 19 21  1  0
 21 22  1  0
 22 23  1  0
 23 24  2  0
 24 25  1  0
 25 26  2  0
 26 27  1  0
 18 28  1  0
 28 29  2  0
 29 30  1  0
 30 31  2  0
 31 32  1  0
 32 33  1  0
 32 34  2  0
  7  2  1  0
 17 12  1  0
 26 22  1  0
 34 28  1  0
M  END
$$$$
