
     RDKit          3D

 23 24  0  0  0  0  0  0  0  0999 V2000
  -27.0349   31.2192  -35.2266 C   0  0  0  0  0  0  0  0  0  0  0  0
  -26.3470   30.0501  -35.7265 N   0  0  0  0  0  0  0  0  0  0  0  0
  -24.9210   30.2398  -35.4309 C   0  0  0  0  0  0  0  0  0  0  0  0
  -26.7666   28.8696  -34.9885 C   0  0  0  0  0  0  0  0  0  0  0  0
  -26.0602   27.6331  -35.4935 C   0  0  0  0  0  0  0  0  0  0  0  0
  -26.5840   26.4552  -34.6407 C   0  0  0  0  0  0  0  0  0  0  0  0
  -26.0020   25.2282  -35.0087 N   0  0  0  0  0  0  0  0  0  0  0  0
  -25.1844   24.5562  -34.0147 C   0  0  0  0  0  0  0  0  0  0  0  0
  -25.7175   24.7507  -32.7596 C   0  0  0  0  0  0  0  0  0  0  0  0
  -25.0769   24.1848  -31.7037 C   0  0  0  0  0  0  0  0  0  0  0  0
  -23.9325   23.4393  -31.8716 C   0  0  0  0  0  0  0  0  0  0  0  0
  -23.4293   23.2668  -33.1465 C   0  0  0  0  0  0  0  0  0  0  0  0
  -24.0321   23.8149  -34.2577 C   0  0  0  0  0  0  0  0  0  0  0  0
  -23.3791   23.5515  -35.5506 C   0  0  0  0  0  0  0  0  0  0  0  0
  -24.2425   23.0149  -36.6295 C   0  0  0  0  0  0  0  0  0  0  0  0
  -25.4392   23.7899  -36.9824 C   0  0  0  0  0  0  0  0  0  0  0  0
  -25.8378   23.4532  -38.2687 C   0  0  0  0  0  0  0  0  0  0  0  0
  -26.9522   24.0237  -38.8473 C   0  0  0  0  0  0  0  0  0  0  0  0
  -27.7113   24.9505  -38.1665 C   0  0  0  0  0  0  0  0  0  0  0  0
  -29.1308   25.6839  -38.8890 Cl  0  0  0  0  0  0  0  0  0  0  0  0
  -27.3473   25.3143  -36.8797 C   0  0  0  0  0  0  0  0  0  0  0  0
  -26.2323   24.7217  -36.3466 C   0  0  0  0  0  0  0  0  0  0  0  0
  -25.7882   26.7516  -35.1954 Cl  0  0  0  0  0  0  0  0  0  0  0  0
  1  2  1  0
  2  3  1  0
  2  4  1  0
  4  5  1  0
  5  6  1  0
  6  7  1  0
  7  8  1  0
  8  9  2  0
  9 10  1  0
 10 11  2  0
 11 12  1  0
 12 13  2  0
 13 14  1  0
 14 15  1  0
 15 16  1  0
 16 17  2  0
 17 18  1  0
 18 19  2  0
 19 20  1  0
 19 21  1  0
 21 22  2  0
 22  7  1  0
 13  8  1  0
 22 16  1  0
M  END
$$$$
