
     RDKit          3D

 22 23  0  0  0  0  0  0  0  0999 V2000
    1.7622   15.2076  -20.6206 C   0  0  0  0  0  0  0  0  0  0  0  0
    1.7315   16.0942  -21.8469 C   0  0  2  0  0  0  0  0  0  0  0  0
    0.5630   16.9086  -21.8330 N   0  0  0  0  0  0  0  0  0  0  0  0
    0.6257   18.0780  -22.6514 C   0  0  0  0  0  0  0  0  0  0  0  0
    1.3254   19.1403  -21.8385 C   0  0  0  0  0  0  0  0  0  0  0  0
    0.9625   19.3738  -20.5356 C   0  0  0  0  0  0  0  0  0  0  0  0
    1.6206   20.3506  -19.8204 C   0  0  0  0  0  0  0  0  0  0  0  0
    2.6350   21.1057  -20.3674 C   0  0  0  0  0  0  0  0  0  0  0  0
    3.3034   22.0846  -19.6698 O   0  0  0  0  0  0  0  0  0  0  0  0
    2.7875   23.3949  -19.6536 C   0  0  0  0  0  0  0  0  0  0  0  0
    3.5377   24.2041  -18.6701 C   0  0  0  0  0  0  0  0  0  0  0  0
    4.8432   24.6201  -18.8732 C   0  0  0  0  0  0  0  0  0  0  0  0
    5.4786   25.3639  -17.9273 C   0  0  0  0  0  0  0  0  0  0  0  0
    4.8068   25.6903  -16.7798 C   0  0  0  0  0  0  0  0  0  0  0  0
    3.5096   25.3032  -16.5272 C   0  0  0  0  0  0  0  0  0  0  0  0
    2.8798   25.6500  -15.3726 F   0  0  0  0  0  0  0  0  0  0  0  0
    2.8798   24.5502  -17.4951 C   0  0  0  0  0  0  0  0  0  0  0  0
    2.9832   20.8560  -21.6738 C   0  0  0  0  0  0  0  0  0  0  0  0
    2.3357   19.8873  -22.3945 C   0  0  0  0  0  0  0  0  0  0  0  0
    1.7209   15.2369  -23.0429 C   0  0  0  0  0  0  0  0  0  0  0  0
    0.5231   15.0237  -23.7514 N   0  0  0  0  0  0  0  0  0  0  0  0
    2.7792   14.7004  -23.4252 O   0  0  0  0  0  0  0  0  0  0  0  0
  2  1  1  1
  2  3  1  0
  3  4  1  0
  4  5  1  0
  5  6  2  0
  6  7  1  0
  7  8  2  0
  8  9  1  0
  9 10  1  0
 10 11  1  0
 11 12  2  0
 12 13  1  0
 13 14  2  0
 14 15  1  0
 15 16  1  0
 15 17  2  0
  8 18  1  0
 18 19  2  0
  2 20  1  0
 20 21  1  0
 20 22  2  0
 19  5  1  0
 17 11  1  0
M  END
$$$$
