
     RDKit          3D

 36 39  0  0  0  0  0  0  0  0999 V2000
  -20.8814   17.7920  -38.1908 C   0  0  0  0  0  0  0  0  0  0  0  0
  -20.1926   19.0809  -37.7199 C   0  0  1  0  0  0  0  0  0  0  0  0
  -18.8201   18.7673  -37.1613 C   0  0  0  0  0  0  0  0  0  0  0  0
  -17.8792   18.5054  -38.2205 N   0  0  0  0  0  0  0  0  0  0  0  0
  -16.9902   17.4158  -38.1060 C   0  0  0  0  0  0  0  0  0  0  0  0
  -17.4257   16.3193  -37.6789 O   0  0  0  0  0  0  0  0  0  0  0  0
  -15.5741   17.5019  -38.4636 C   0  0  0  0  0  0  0  0  0  0  0  0
  -15.1423   17.6160  -39.7770 C   0  0  0  0  0  0  0  0  0  0  0  0
  -13.7986   17.6970  -40.1117 C   0  0  0  0  0  0  0  0  0  0  0  0
  -13.1152   17.8150  -41.3326 C   0  0  0  0  0  0  0  0  0  0  0  0
  -13.8015   17.8783  -42.6020 C   0  0  0  0  0  0  0  0  0  0  0  0
  -14.6529   17.0252  -42.9420 O   0  0  0  0  0  0  0  0  0  0  0  0
  -13.5276   18.9440  -43.5415 C   0  0  0  0  0  0  0  0  0  0  0  0
  -12.9651   19.9981  -43.1685 O   0  0  0  0  0  0  0  0  0  0  0  0
  -13.8789   18.8526  -44.9254 N   0  0  0  0  0  0  0  0  0  0  0  0
  -13.7307   17.5907  -45.6481 C   0  0  0  0  0  0  0  0  0  0  0  0
  -14.3849   19.9873  -45.6451 C   0  0  0  0  0  0  0  0  0  0  0  0
  -11.7812   17.8499  -41.0415 C   0  0  0  0  0  0  0  0  0  0  0  0
  -11.6264   17.7576  -39.6889 N   0  0  0  0  0  0  0  0  0  0  0  0
  -10.3685   17.7601  -38.9997 C   0  0  0  0  0  0  0  0  0  0  0  0
  -12.8353   17.6666  -39.1408 C   0  0  0  0  0  0  0  0  0  0  0  0
  -13.2578   17.5521  -37.8167 C   0  0  0  0  0  0  0  0  0  0  0  0
  -14.5946   17.4723  -37.4942 C   0  0  0  0  0  0  0  0  0  0  0  0
  -15.1041   17.3287  -35.8245 Cl  0  0  0  0  0  0  0  0  0  0  0  0
  -17.8405   19.3489  -39.3903 C   0  0  2  0  0  0  0  0  0  0  0  0
  -16.9823   20.5744  -39.1821 C   0  0  0  0  0  0  0  0  0  0  0  0
  -19.2376   19.7045  -39.8423 C   0  0  0  0  0  0  0  0  0  0  0  0
  -20.1490   19.9632  -38.8088 N   0  0  0  0  0  0  0  0  0  0  0  0
  -20.8415   21.1760  -38.7730 C   0  0  0  0  0  0  0  0  0  0  0  0
  -20.9345   21.8121  -40.1128 C   0  0  0  0  0  0  0  0  0  0  0  0
  -20.0796   22.8077  -40.5207 C   0  0  0  0  0  0  0  0  0  0  0  0
  -20.2161   23.3625  -41.7718 C   0  0  0  0  0  0  0  0  0  0  0  0
  -21.1970   22.9468  -42.6439 C   0  0  0  0  0  0  0  0  0  0  0  0
  -21.3498   23.4820  -43.8864 F   0  0  0  0  0  0  0  0  0  0  0  0
  -22.0397   21.9525  -42.2183 C   0  0  0  0  0  0  0  0  0  0  0  0
  -21.9215   21.3829  -40.9704 C   0  0  0  0  0  0  0  0  0  0  0  0
  2  1  1  6
  2  3  1  0
  3  4  1  0
  4  5  1  0
  5  6  2  0
  5  7  1  0
  7  8  2  0
  8  9  1  0
  9 10  1  0
 10 11  1  0
 11 12  2  0
 11 13  1  0
 13 14  2  0
 13 15  1  0
 15 16  1  0
 15 17  1  0
 10 18  2  0
 18 19  1  0
 19 20  1  0
 19 21  1  0
 21 22  1  0
 22 23  2  0
 23 24  1  0
  4 25  1  0
 25 26  1  1
 25 27  1  0
 27 28  1  0
 28 29  1  0
 29 30  1  0
 30 31  2  0
 31 32  1  0
 32 33  2  0
 33 34  1  0
 33 35  1  0
 35 36  2  0
 28  2  1  0
 36 30  1  0
 23  7  1  0
 21  9  2  0
M  END
$$$$
