
     RDKit          3D

 30 34  0  0  0  0  0  0  0  0999 V2000
  -27.5172   21.0784  -30.2136 C   0  0  0  0  0  0  0  0  0  0  0  0
  -26.4739   22.5094  -30.0095 S   0  0  0  0  0  0  0  0  0  0  0  0
  -24.9540   22.1967  -30.9630 C   0  0  0  0  0  0  0  0  0  0  0  0
  -24.1856   22.8463  -31.6868 N   0  0  0  0  0  0  0  0  0  0  0  0
  -23.1360   22.3821  -32.2710 C   0  0  0  0  0  0  0  0  0  0  0  0
  -22.1978   23.0153  -33.1068 C   0  0  0  0  0  0  0  0  0  0  0  0
  -21.1410   22.3915  -33.6482 C   0  0  0  0  0  0  0  0  0  0  0  0
  -20.8562   21.0217  -33.4347 C   0  0  0  0  0  0  0  0  0  0  0  0
  -19.9197   20.3124  -33.8677 N   0  0  0  0  0  0  0  0  0  0  0  0
  -19.7580   19.0079  -33.5887 C   0  0  0  0  0  0  0  0  0  0  0  0
  -18.7773   18.0956  -33.9915 N   0  0  0  0  0  0  0  0  0  0  0  0
  -19.0636   16.7206  -33.8544 C   0  0  0  0  0  0  0  0  0  0  0  0
  -20.0887   16.3442  -33.2529 O   0  0  0  0  0  0  0  0  0  0  0  0
  -18.1403   15.6861  -34.4295 C   0  0  0  0  0  0  0  0  0  0  0  0
  -16.8440   15.6693  -33.7017 C   0  0  0  0  0  0  0  0  0  0  0  0
  -16.7669   15.4176  -32.3490 C   0  0  0  0  0  0  0  0  0  0  0  0
  -15.5842   15.4075  -31.6824 C   0  0  0  0  0  0  0  0  0  0  0  0
  -14.4171   15.6534  -32.3591 C   0  0  0  0  0  0  0  0  0  0  0  0
  -14.4339   15.9109  -33.7105 C   0  0  0  0  0  0  0  0  0  0  0  0
  -15.6611   15.9146  -34.3663 C   0  0  0  0  0  0  0  0  0  0  0  0
  -18.7578   14.3540  -34.5229 C   0  0  0  0  0  0  0  0  0  0  0  0
  -19.7663   14.1097  -35.4165 C   0  0  0  0  0  0  0  0  0  0  0  0
  -20.3775   12.8877  -35.5459 C   0  0  0  0  0  0  0  0  0  0  0  0
  -19.9549   11.8606  -34.7383 C   0  0  0  0  0  0  0  0  0  0  0  0
  -18.9365   12.0948  -33.8313 C   0  0  0  0  0  0  0  0  0  0  0  0
  -18.3301   13.3192  -33.7073 C   0  0  0  0  0  0  0  0  0  0  0  0
  -21.1553   18.7317  -32.5435 S   0  0  0  0  0  0  0  0  0  0  0  0
  -21.7980   20.4290  -32.6085 C   0  0  0  0  0  0  0  0  0  0  0  0
  -22.8501   21.0219  -32.0610 C   0  0  0  0  0  0  0  0  0  0  0  0
  -24.1497   20.5343  -31.0199 S   0  0  0  0  0  0  0  0  0  0  0  0
  1  2  1  0
  2  3  1  0
  3  4  2  0
  4  5  1  0
  5  6  2  0
  6  7  1  0
  7  8  2  0
  8  9  1  0
  9 10  2  0
 10 11  1  0
 11 12  1  0
 12 13  2  0
 12 14  1  0
 14 15  1  0
 15 16  2  0
 16 17  1  0
 17 18  2  0
 18 19  1  0
 19 20  2  0
 14 21  1  0
 21 22  2  0
 22 23  1  0
 23 24  2  0
 24 25  1  0
 25 26  2  0
 10 27  1  0
 27 28  1  0
 28 29  2  0
 29 30  1  0
 30  3  1  0
 29  5  1  0
 28  8  1  0
 20 15  1  0
 26 21  1  0
M  END
$$$$
