
     RDKit          3D

 36 40  0  0  0  0  0  0  0  0999 V2000
  -15.6122   20.9412  -42.3734 O   0  0  0  0  0  0  0  0  0  0  0  0
  -16.3879   20.5442  -41.4457 C   0  0  0  0  0  0  0  0  0  0  0  0
  -17.7370   20.9578  -41.5568 N   0  0  0  0  0  0  0  0  0  0  0  0
  -18.0792   22.2216  -42.1145 C   0  0  0  0  0  0  0  0  0  0  0  0
  -17.1244   23.2138  -42.1062 C   0  0  0  0  0  0  0  0  0  0  0  0
  -17.3766   24.4455  -42.6209 C   0  0  0  0  0  0  0  0  0  0  0  0
  -18.6091   24.7245  -43.1668 C   0  0  0  0  0  0  0  0  0  0  0  0
  -19.5765   23.7438  -43.1836 C   0  0  0  0  0  0  0  0  0  0  0  0
  -20.8181   23.9814  -43.7185 C   0  0  0  0  0  0  0  0  0  0  0  0
  -21.0421   25.1169  -44.1900 O   0  0  0  0  0  0  0  0  0  0  0  0
  -21.7352   22.9529  -43.7005 C   0  0  0  0  0  0  0  0  0  0  0  0
  -21.4038   21.7144  -43.1545 C   0  0  0  0  0  0  0  0  0  0  0  0
  -22.4336   20.6832  -43.1766 C   0  0  0  0  0  0  0  0  0  0  0  0
  -23.7175   20.8182  -43.5299 N   0  0  0  0  0  0  0  0  0  0  0  0
  -24.3077   19.6400  -43.4079 N   0  0  0  0  0  0  0  0  0  0  0  0
  -23.4282   18.7486  -42.9827 N   0  0  0  0  0  0  0  0  0  0  0  0
  -22.2917   19.3799  -42.8421 N   0  0  0  0  0  0  0  0  0  0  0  0
  -20.2052   21.5323  -42.6543 O   0  0  0  0  0  0  0  0  0  0  0  0
  -19.3039   22.4922  -42.6546 C   0  0  0  0  0  0  0  0  0  0  0  0
  -15.8924   19.7193  -40.3532 C   0  0  0  0  0  0  0  0  0  0  0  0
  -16.5723   18.6656  -39.8039 C   0  0  0  0  0  0  0  0  0  0  0  0
  -16.1016   17.8963  -38.7801 C   0  0  0  0  0  0  0  0  0  0  0  0
  -14.8458   18.1766  -38.2340 C   0  0  0  0  0  0  0  0  0  0  0  0
  -14.3608   17.4192  -37.2074 O   0  0  0  0  0  0  0  0  0  0  0  0
  -13.5218   16.3506  -37.1623 C   0  0  0  0  0  0  0  0  0  0  0  0
  -13.2983   15.7131  -35.8187 C   0  0  0  0  0  0  0  0  0  0  0  0
  -14.6769   15.2086  -35.3674 C   0  0  0  0  0  0  0  0  0  0  0  0
  -14.5458   14.0520  -34.4305 C   0  0  0  0  0  0  0  0  0  0  0  0
  -14.0397   14.4518  -33.1105 C   0  0  0  0  0  0  0  0  0  0  0  0
  -14.2218   13.6105  -32.0290 C   0  0  0  0  0  0  0  0  0  0  0  0
  -13.7399   14.0018  -30.8000 C   0  0  0  0  0  0  0  0  0  0  0  0
  -13.0863   15.1928  -30.6046 C   0  0  0  0  0  0  0  0  0  0  0  0
  -12.8956   16.0474  -31.6776 C   0  0  0  0  0  0  0  0  0  0  0  0
  -13.3762   15.6559  -32.9007 C   0  0  0  0  0  0  0  0  0  0  0  0
  -14.1437   19.2187  -38.7567 C   0  0  0  0  0  0  0  0  0  0  0  0
  -14.6585   19.9863  -39.8080 C   0  0  0  0  0  0  0  0  0  0  0  0
  1  2  2  0
  2  3  1  0
  3  4  1  0
  4  5  2  0
  5  6  1  0
  6  7  2  0
  7  8  1  0
  8  9  1  0
  9 10  2  0
  9 11  1  0
 11 12  2  0
 12 13  1  0
 13 14  1  0
 14 15  2  0
 15 16  1  0
 16 17  1  0
 12 18  1  0
 18 19  1  0
  2 20  1  0
 20 21  2  0
 21 22  1  0
 22 23  2  0
 23 24  1  0
 24 25  1  0
 25 26  1  0
 26 27  1  0
 27 28  1  0
 28 29  1  0
 29 30  2  0
 30 31  1  0
 31 32  2  0
 32 33  1  0
 33 34  2  0
 23 35  1  0
 35 36  2  0
 19  4  1  0
 36 20  1  0
 19  8  2  0
 34 29  1  0
 17 13  2  0
M  END
$$$$
