
     RDKit          3D

 13 14  0  0  0  0  0  0  0  0999 V2000
   -6.7258    5.2675  -16.0005 Br  0  0  0  0  0  0  0  0  0  0  0  0
   -7.9690    6.1282  -14.8308 C   0  0  0  0  0  0  0  0  0  0  0  0
   -9.3085    5.7779  -14.8187 C   0  0  0  0  0  0  0  0  0  0  0  0
   -9.8931    4.3912  -16.0189 Br  0  0  0  0  0  0  0  0  0  0  0  0
  -10.1891    6.4119  -13.9663 C   0  0  0  0  0  0  0  0  0  0  0  0
  -12.0149    5.9339  -13.9503 Br  0  0  0  0  0  0  0  0  0  0  0  0
   -9.7677    7.4059  -13.1067 C   0  0  0  0  0  0  0  0  0  0  0  0
  -10.3720    8.1860  -12.1846 N   0  0  0  0  0  0  0  0  0  0  0  0
   -9.4832    9.0155  -11.6093 C   0  0  0  0  0  0  0  0  0  0  0  0
   -8.2982    8.7458  -12.1862 N   0  0  0  0  0  0  0  0  0  0  0  0
   -8.4317    7.7673  -13.1069 C   0  0  0  0  0  0  0  0  0  0  0  0
   -7.5636    7.1266  -13.9626 C   0  0  0  0  0  0  0  0  0  0  0  0
   -5.7241    7.6582  -13.9298 Br  0  0  0  0  0  0  0  0  0  0  0  0
  1  2  1  0
  2  3  2  0
  3  4  1  0
  3  5  1  0
  5  6  1  0
  5  7  2  0
  7  8  1  0
  8  9  1  0
  9 10  2  0
 10 11  1  0
 11 12  2  0
 12 13  1  0
 12  2  1  0
 11  7  1  0
M  END
$$$$
