
     RDKit          3D

 14 14  0  0  0  0  0  0  0  0999 V2000
  -20.2842   36.9663  -24.4922 N   0  0  0  0  0  0  0  0  0  0  0  0
  -20.1229   36.2374  -23.2775 C   0  0  0  0  0  0  0  0  0  0  0  0
  -18.7112   36.0124  -22.8886 C   0  0  2  0  0  0  0  0  0  0  0  0
  -18.4382   35.1473  -21.7234 C   0  0  0  0  0  0  0  0  0  0  0  0
  -18.5475   33.7110  -21.8609 C   0  0  0  0  0  0  0  0  0  0  0  0
  -19.7317   33.2245  -21.7220 O   0  0  0  0  0  0  0  0  0  0  0  0
  -17.5721   32.7805  -22.1180 O   0  0  0  0  0  0  0  0  0  0  0  0
  -18.1625   37.3763  -22.5061 C   0  0  0  0  0  0  0  0  0  0  0  0
  -19.0072   38.1715  -21.7847 C   0  0  0  0  0  0  0  0  0  0  0  0
  -18.5815   39.4212  -21.3961 C   0  0  0  0  0  0  0  0  0  0  0  0
  -17.3284   39.8519  -21.7309 C   0  0  0  0  0  0  0  0  0  0  0  0
  -16.8099   41.4431  -21.2226 Cl  0  0  0  0  0  0  0  0  0  0  0  0
  -16.4896   39.0548  -22.4499 C   0  0  0  0  0  0  0  0  0  0  0  0
  -16.9142   37.7963  -22.8443 C   0  0  0  0  0  0  0  0  0  0  0  0
  1  2  1  0
  3  2  1  1
  3  4  1  0
  4  5  1  0
  5  6  2  0
  5  7  1  0
  3  8  1  0
  8  9  2  0
  9 10  1  0
 10 11  2  0
 11 12  1  0
 11 13  1  0
 13 14  2  0
 14  8  1  0
M  END
$$$$
