
     RDKit          3D

 20 22  0  0  0  0  0  0  0  0999 V2000
  -22.6791   31.4545  -20.8547 F   0  0  0  0  0  0  0  0  0  0  0  0
  -21.5446   32.0814  -21.2721 C   0  0  0  0  0  0  0  0  0  0  0  0
  -20.8284   31.6501  -22.3741 C   0  0  0  0  0  0  0  0  0  0  0  0
  -19.6841   32.3141  -22.7629 C   0  0  0  0  0  0  0  0  0  0  0  0
  -19.2369   33.4152  -22.0617 C   0  0  0  0  0  0  0  0  0  0  0  0
  -18.0097   34.1461  -22.4596 C   0  0  0  0  0  0  0  0  0  0  0  0
  -18.0310   35.5298  -22.0114 N   0  0  0  0  0  0  0  0  0  0  0  0
  -18.3522   36.5332  -22.9388 C   0  0  0  0  0  0  0  0  0  0  0  0
  -18.9227   36.2287  -24.1465 N   0  0  0  0  0  0  0  0  0  0  0  0
  -19.2450   37.1550  -25.0601 C   0  0  0  0  0  0  0  0  0  0  0  0
  -18.9859   38.4350  -24.7522 N   0  0  0  0  0  0  0  0  0  0  0  0
  -18.4294   38.8379  -23.5964 C   0  0  0  0  0  0  0  0  0  0  0  0
  -18.1789   40.1662  -23.3178 C   0  0  0  0  0  0  0  0  0  0  0  0
  -17.6099   40.5941  -22.1395 C   0  0  0  0  0  0  0  0  0  0  0  0
  -17.2850   39.6358  -21.2133 C   0  0  0  0  0  0  0  0  0  0  0  0
  -16.7246   40.0168  -20.0442 F   0  0  0  0  0  0  0  0  0  0  0  0
  -17.5372   38.2879  -21.4915 C   0  0  0  0  0  0  0  0  0  0  0  0
  -18.1004   37.8637  -22.6577 C   0  0  0  0  0  0  0  0  0  0  0  0
  -19.9660   33.8352  -20.9591 C   0  0  0  0  0  0  0  0  0  0  0  0
  -21.1217   33.1769  -20.5539 C   0  0  0  0  0  0  0  0  0  0  0  0
  1  2  1  0
  2  3  2  0
  3  4  1  0
  4  5  2  0
  5  6  1  0
  6  7  1  0
  7  8  1  0
  8  9  2  0
  9 10  1  0
 10 11  2  0
 11 12  1  0
 12 13  2  0
 13 14  1  0
 14 15  2  0
 15 16  1  0
 15 17  1  0
 17 18  2  0
  5 19  1  0
 19 20  2  0
 20  2  1  0
 18  8  1  0
 18 12  1  0
M  END
$$$$
