
     RDKit          3D

 30 34  0  0  0  0  0  0  0  0999 V2000
  -21.6575   37.8773  -25.1036 F   0  0  0  0  0  0  0  0  0  0  0  0
  -20.3863   37.5894  -25.5877 C   0  0  0  0  0  0  0  0  0  0  0  0
  -20.3591   36.4518  -26.3307 F   0  0  0  0  0  0  0  0  0  0  0  0
  -19.5005   37.5045  -24.3860 C   0  0  0  0  0  0  0  0  0  0  0  0
  -19.0282   36.3736  -23.8372 N   0  0  0  0  0  0  0  0  0  0  0  0
  -18.2743   36.7482  -22.7766 C   0  0  0  0  0  0  0  0  0  0  0  0
  -17.5388   36.0685  -21.8304 C   0  0  0  0  0  0  0  0  0  0  0  0
  -16.8284   36.6630  -20.8106 C   0  0  0  0  0  0  0  0  0  0  0  0
  -16.8750   38.0562  -20.7563 C   0  0  0  0  0  0  0  0  0  0  0  0
  -17.5927   38.7884  -21.6737 C   0  0  0  0  0  0  0  0  0  0  0  0
  -18.2852   38.1429  -22.6734 C   0  0  0  0  0  0  0  0  0  0  0  0
  -19.0604   38.5715  -23.6951 N   0  0  0  0  0  0  0  0  0  0  0  0
  -19.3596   39.9143  -23.9897 C   0  0  0  0  0  0  0  0  0  0  0  0
  -18.7902   40.9663  -23.3655 N   0  0  0  0  0  0  0  0  0  0  0  0
  -19.0815   42.2464  -23.6528 C   0  0  0  0  0  0  0  0  0  0  0  0
  -18.4798   43.3455  -22.9934 N   0  0  0  0  0  0  0  0  0  0  0  0
  -18.6525   44.6908  -23.5035 C   0  0  0  0  0  0  0  0  0  0  0  0
  -18.0229   45.6731  -22.5406 C   0  0  0  0  0  0  0  0  0  0  0  0
  -16.7187   45.3668  -22.2371 O   0  0  0  0  0  0  0  0  0  0  0  0
  -16.5016   44.1101  -21.7578 C   0  0  0  0  0  0  0  0  0  0  0  0
  -17.6783   43.1914  -21.8030 C   0  0  0  0  0  0  0  0  0  0  0  0
  -19.9977   42.4744  -24.6236 N   0  0  0  0  0  0  0  0  0  0  0  0
  -20.5933   41.4634  -25.2750 C   0  0  0  0  0  0  0  0  0  0  0  0
  -21.5570   41.6791  -26.2967 N   0  0  0  0  0  0  0  0  0  0  0  0
  -22.2761   40.6309  -26.9507 C   0  0  0  0  0  0  0  0  0  0  0  0
  -23.5543   41.1767  -27.5500 C   0  0  0  0  0  0  0  0  0  0  0  0
  -24.0605   42.1024  -26.6497 O   0  0  0  0  0  0  0  0  0  0  0  0
  -23.3120   43.2748  -26.6928 C   0  0  0  0  0  0  0  0  0  0  0  0
  -21.8328   43.0469  -26.7064 C   0  0  0  0  0  0  0  0  0  0  0  0
  -20.2719   40.2184  -24.9550 N   0  0  0  0  0  0  0  0  0  0  0  0
  1  2  1  0
  2  3  1  0
  2  4  1  0
  4  5  2  0
  5  6  1  0
  6  7  2  0
  7  8  1  0
  8  9  2  0
  9 10  1  0
 10 11  2  0
 11 12  1  0
 12 13  1  0
 13 14  2  0
 14 15  1  0
 15 16  1  0
 16 17  1  0
 17 18  1  0
 18 19  1  0
 19 20  1  0
 20 21  1  0
 15 22  2  0
 22 23  1  0
 23 24  1  0
 24 25  1  0
 25 26  1  0
 26 27  1  0
 27 28  1  0
 28 29  1  0
 23 30  2  0
 12  4  1  0
 30 13  1  0
 11  6  1  0
 21 16  1  0
 29 24  1  0
M  END
$$$$
