
     RDKit          3D

 35 39  0  0  0  0  0  0  0  0999 V2000
    3.3210   21.5564  -18.3482 Cl  0  0  0  0  0  0  0  0  0  0  0  0
    3.7425   16.8103  -19.4303 O   0  0  0  0  0  0  0  0  0  0  0  0
    2.5983   17.3079  -19.4188 C   0  0  0  0  0  0  0  0  0  0  0  0
    2.0933   17.8075  -18.1926 N   0  0  0  0  0  0  0  0  0  0  0  0
    2.8248   17.7694  -16.9776 C   0  0  0  0  0  0  0  0  0  0  0  0
    2.7830   16.7253  -16.0786 C   0  0  0  0  0  0  0  0  0  0  0  0
    3.5090   16.7325  -14.9150 C   0  0  0  0  0  0  0  0  0  0  0  0
    4.3145   17.8111  -14.6146 C   0  0  0  0  0  0  0  0  0  0  0  0
    4.3656   18.8669  -15.5091 C   0  0  0  0  0  0  0  0  0  0  0  0
    3.6295   18.8440  -16.6747 C   0  0  0  0  0  0  0  0  0  0  0  0
    3.6955   19.9616  -17.6015 C   0  0  0  0  0  0  0  0  0  0  0  0
    4.4459   21.1022  -17.4481 C   0  0  0  0  0  0  0  0  0  0  0  0
    4.2494   21.9510  -18.5492 N   0  0  0  0  0  0  0  0  0  0  0  0
    4.7025   23.1195  -18.8994 C   0  0  0  0  0  0  0  0  0  0  0  0
    5.7044   23.9670  -18.0879 C   0  0  0  0  0  0  0  0  0  0  0  0
    5.0236   24.8249  -17.1707 N   0  0  0  0  0  0  0  0  0  0  0  0
    5.9587   25.6213  -16.4007 C   0  0  0  0  0  0  0  0  0  0  0  0
    5.2485   26.4288  -15.3650 C   0  0  0  0  0  0  0  0  0  0  0  0
    4.3940   27.3767  -16.0993 N   0  0  0  0  0  0  0  0  0  0  0  0
    3.4021   26.5840  -16.7650 C   0  0  0  0  0  0  0  0  0  0  0  0
    4.0946   25.7201  -17.8105 C   0  0  0  0  0  0  0  0  0  0  0  0
    4.2926   23.7059  -20.1004 C   0  0  0  0  0  0  0  0  0  0  0  0
    3.1513   22.3843  -20.7162 S   0  0  0  0  0  0  0  0  0  0  0  0
    3.3873   21.2724  -19.3095 C   0  0  0  0  0  0  0  0  0  0  0  0
    3.0387   20.0968  -18.7838 N   0  0  0  0  0  0  0  0  0  0  0  0
    1.8283   17.3560  -20.6621 C   0  0  0  0  0  0  0  0  0  0  0  0
    2.3557   16.8587  -21.8345 C   0  0  0  0  0  0  0  0  0  0  0  0
    1.6504   16.8981  -22.9920 N   0  0  0  0  0  0  0  0  0  0  0  0
    0.4125   17.4226  -23.0399 C   0  0  0  0  0  0  0  0  0  0  0  0
   -0.3169   17.4678  -24.2185 C   0  0  0  0  0  0  0  0  0  0  0  0
   -1.5980   18.0116  -24.2651 C   0  0  0  0  0  0  0  0  0  0  0  0
   -2.1318   18.5101  -23.0997 C   0  0  0  0  0  0  0  0  0  0  0  0
   -1.3905   18.4578  -21.9296 C   0  0  0  0  0  0  0  0  0  0  0  0
   -0.1203   17.9219  -21.8693 C   0  0  0  0  0  0  0  0  0  0  0  0
    0.5902   17.8787  -20.7185 N   0  0  0  0  0  0  0  0  0  0  0  0
  2  3  2  0
  3  4  1  0
  4  5  1  0
  5  6  2  0
  6  7  1  0
  7  8  2  0
  8  9  1  0
  9 10  2  0
 10 11  1  0
 11 12  2  0
 12 13  1  0
 13 14  1  0
 14 15  1  0
 15 16  1  0
 16 17  1  0
 17 18  1  0
 18 19  1  0
 19 20  1  0
 20 21  1  0
 14 22  2  0
 22 23  1  0
 23 24  1  0
 24 25  2  0
  3 26  1  0
 26 27  2  0
 27 28  1  0
 28 29  2  0
 29 30  1  0
 30 31  2  0
 31 32  1  0
 32 33  2  0
 33 34  1  0
 34 35  2  0
 10  5  1  0
 25 11  1  0
 35 26  1  0
 24 13  1  0
 34 29  1  0
 21 16  1  0
M  END
$$$$
