
     RDKit          3D

 29 32  0  0  0  0  0  0  0  0999 V2000
  -20.1894   22.7949  -33.4601 C   0  0  0  0  0  0  0  0  0  0  0  0
  -20.8255   21.6582  -32.6713 C   0  0  2  0  0  0  0  0  0  0  0  0
  -19.7186   21.0193  -31.8470 C   0  0  0  0  0  0  0  0  0  0  0  0
  -19.3209   19.9340  -32.7465 C   0  0  1  0  0  0  0  0  0  0  0  0
  -18.4344   18.8531  -32.2435 C   0  0  2  0  0  0  0  0  0  0  0  0
  -17.3086   19.4441  -31.5014 C   0  0  0  0  0  0  0  0  0  0  0  0
  -16.0306   18.6559  -31.4483 C   0  0  2  0  0  0  0  0  0  0  0  0
  -14.9320   19.4229  -31.1528 F   0  0  0  0  0  0  0  0  0  0  0  0
  -15.8230   17.9123  -32.7503 C   0  0  0  0  0  0  0  0  0  0  0  0
  -14.6900   17.9713  -33.3863 C   0  0  0  0  0  0  0  0  0  0  0  0
  -14.4379   17.2857  -34.6367 C   0  0  0  0  0  0  0  0  0  0  0  0
  -13.3326   17.3571  -35.2333 O   0  0  0  0  0  0  0  0  0  0  0  0
  -15.5021   16.4904  -35.2161 C   0  0  0  0  0  0  0  0  0  0  0  0
  -16.6398   16.4426  -34.5541 C   0  0  0  0  0  0  0  0  0  0  0  0
  -16.9515   17.1072  -33.2827 C   0  0  1  0  0  0  0  0  0  0  0  0
  -17.3780   16.0611  -32.2545 C   0  0  0  0  0  0  0  0  0  0  0  0
  -18.0631   18.1128  -33.5224 C   0  0  2  0  0  0  0  0  0  0  0  0
  -17.4615   19.1044  -34.3219 F   0  0  0  0  0  0  0  0  0  0  0  0
  -19.2105   17.5699  -34.2540 C   0  0  1  0  0  0  0  0  0  0  0  0
  -19.3936   16.2302  -33.9011 O   0  0  0  0  0  0  0  0  0  0  0  0
  -20.5047   18.2728  -34.1685 C   0  0  0  0  0  0  0  0  0  0  0  0
  -20.6542   19.3134  -33.1095 C   0  0  1  0  0  0  0  0  0  0  0  0
  -21.4576   18.8540  -31.9425 C   0  0  0  0  0  0  0  0  0  0  0  0
  -21.3042   20.5985  -33.6449 C   0  0  2  0  0  0  0  0  0  0  0  0
  -20.8012   20.7959  -34.9341 O   0  0  0  0  0  0  0  0  0  0  0  0
  -22.7632   20.5604  -33.6922 C   0  0  0  0  0  0  0  0  0  0  0  0
  -23.3869   20.3216  -32.6729 O   0  0  0  0  0  0  0  0  0  0  0  0
  -23.5615   20.7985  -34.9280 C   0  0  0  0  0  0  0  0  0  0  0  0
  -24.9107   20.7285  -34.6295 O   0  0  0  0  0  0  0  0  0  0  0  0
  2  1  1  6
  2  3  1  0
  4  3  1  1
  4  5  1  0
  5  6  1  6
  6  7  1  0
  7  8  1  6
  7  9  1  0
  9 10  2  0
 10 11  1  0
 11 12  2  0
 11 13  1  0
 13 14  2  0
 14 15  1  0
 15 16  1  1
 15 17  1  0
 17 18  1  6
 17 19  1  0
 19 20  1  1
 19 21  1  0
 21 22  1  0
 22 23  1  1
 22 24  1  0
 24 25  1  6
 24 26  1  0
 26 27  2  0
 26 28  1  0
 28 29  1  0
 24  2  1  0
 22  4  1  0
 17  5  1  0
 15  9  1  0
M  END
$$$$
