
     RDKit          3D

 54 56  0  0  0  0  0  0  0  0999 V2000
  -13.3220   17.0420  -41.2413 C   0  0  0  0  0  0  0  0  0  0  0  0
  -14.0044   17.0768  -39.5795 S   0  0  0  0  0  0  0  0  0  0  0  0
  -15.5247   18.0555  -39.4964 C   0  0  0  0  0  0  0  0  0  0  0  0
  -16.0588   18.2200  -38.1181 C   0  0  0  0  0  0  0  0  0  0  0  0
  -17.3283   19.0611  -38.1888 C   0  0  2  0  0  0  0  0  0  0  0  0
  -17.9114   19.1470  -36.8470 N   0  0  0  0  0  0  0  0  0  0  0  0
  -19.0408   19.9430  -36.5959 C   0  0  0  0  0  0  0  0  0  0  0  0
  -19.5864   20.5742  -37.5741 O   0  0  0  0  0  0  0  0  0  0  0  0
  -19.6315   20.0924  -35.2466 C   0  0  2  0  0  0  0  0  0  0  0  0
  -19.8387   21.5362  -34.8357 C   0  0  0  0  0  0  0  0  0  0  0  0
  -20.6963   22.3235  -35.7205 C   0  0  0  0  0  0  0  0  0  0  0  0
  -20.8591   22.1230  -37.0737 C   0  0  0  0  0  0  0  0  0  0  0  0
  -21.7137   23.0443  -37.5823 N   0  0  0  0  0  0  0  0  0  0  0  0
  -22.1129   23.8441  -36.5853 C   0  0  0  0  0  0  0  0  0  0  0  0
  -22.9714   24.9345  -36.5582 C   0  0  0  0  0  0  0  0  0  0  0  0
  -23.2360   25.6200  -35.3920 C   0  0  0  0  0  0  0  0  0  0  0  0
  -22.6129   25.1838  -34.2328 C   0  0  0  0  0  0  0  0  0  0  0  0
  -21.7597   24.1003  -34.2595 C   0  0  0  0  0  0  0  0  0  0  0  0
  -21.4897   23.4102  -35.4181 C   0  0  0  0  0  0  0  0  0  0  0  0
  -18.7616   19.4405  -34.2632 N   0  0  0  0  0  0  0  0  0  0  0  0
  -18.7232   18.0371  -34.0795 C   0  0  0  0  0  0  0  0  0  0  0  0
  -19.4628   17.3470  -34.8313 O   0  0  0  0  0  0  0  0  0  0  0  0
  -17.8770   17.3567  -33.0712 C   0  0  0  0  0  0  0  0  0  0  0  0
  -16.7617   16.6135  -33.7664 C   0  0  0  0  0  0  0  0  0  0  0  0
  -16.0815   15.7598  -32.8210 N   0  0  0  0  0  0  0  0  0  0  0  0
  -16.5430   15.5042  -31.5026 C   0  0  0  0  0  0  0  0  0  0  0  0
  -16.6653   16.4735  -30.7165 O   0  0  0  0  0  0  0  0  0  0  0  0
  -16.8548   14.1933  -31.0883 O   0  0  0  0  0  0  0  0  0  0  0  0
  -15.7711   13.2776  -31.1450 C   0  0  0  0  0  0  0  0  0  0  0  0
  -16.2199   11.9290  -30.6287 C   0  0  0  0  0  0  0  0  0  0  0  0
  -14.6557   13.7699  -30.2188 C   0  0  0  0  0  0  0  0  0  0  0  0
  -15.2305   13.0946  -32.5250 C   0  0  0  0  0  0  0  0  0  0  0  0
  -18.2846   18.5289  -39.1674 C   0  0  0  0  0  0  0  0  0  0  0  0
  -17.9089   17.5493  -39.8784 O   0  0  0  0  0  0  0  0  0  0  0  0
  -19.5981   19.0055  -39.3987 N   0  0  0  0  0  0  0  0  0  0  0  0
  -20.4941   18.4486  -40.3757 C   0  0  1  0  0  0  0  0  0  0  0  0
  -21.7596   17.9102  -39.7260 C   0  0  0  0  0  0  0  0  0  0  0  0
  -21.7317   18.2662  -38.2963 C   0  0  0  0  0  0  0  0  0  0  0  0
  -22.7526   18.0680  -37.6003 O   0  0  0  0  0  0  0  0  0  0  0  0
  -20.6173   18.8126  -37.6907 O   0  0  0  0  0  0  0  0  0  0  0  0
  -20.7552   19.4299  -41.4338 C   0  0  0  0  0  0  0  0  0  0  0  0
  -21.5562   19.1568  -42.3777 O   0  0  0  0  0  0  0  0  0  0  0  0
  -20.1599   20.7128  -41.4854 N   0  0  0  0  0  0  0  0  0  0  0  0
  -20.4364   21.6107  -42.6206 C   0  0  1  0  0  0  0  0  0  0  0  0
  -19.4204   22.7328  -42.4743 C   0  0  0  0  0  0  0  0  0  0  0  0
  -19.9767   23.9324  -41.8191 C   0  0  0  0  0  0  0  0  0  0  0  0
  -19.7904   24.0516  -40.4589 C   0  0  0  0  0  0  0  0  0  0  0  0
  -20.2976   25.1599  -39.8140 C   0  0  0  0  0  0  0  0  0  0  0  0
  -20.9821   26.1335  -40.5299 C   0  0  0  0  0  0  0  0  0  0  0  0
  -21.1483   25.9777  -41.8939 C   0  0  0  0  0  0  0  0  0  0  0  0
  -20.6489   24.8820  -42.5428 C   0  0  0  0  0  0  0  0  0  0  0  0
  -20.2607   20.8885  -43.8854 C   0  0  0  0  0  0  0  0  0  0  0  0
  -18.9667   20.4916  -44.3159 N   0  0  0  0  0  0  0  0  0  0  0  0
  -21.2234   20.5944  -44.6325 O   0  0  0  0  0  0  0  0  0  0  0  0
  1  2  1  0
  2  3  1  0
  3  4  1  0
  5  4  1  1
  5  6  1  0
  6  7  1  0
  7  8  2  0
  7  9  1  0
  9 10  1  1
 10 11  1  0
 11 12  2  0
 12 13  1  0
 13 14  1  0
 14 15  2  0
 15 16  1  0
 16 17  2  0
 17 18  1  0
 18 19  2  0
  9 20  1  0
 20 21  1  0
 21 22  2  0
 21 23  1  0
 23 24  1  0
 24 25  1  0
 25 26  1  0
 26 27  2  0
 26 28  1  0
 28 29  1  0
 29 30  1  0
 29 31  1  0
 29 32  1  0
  5 33  1  0
 33 34  2  0
 33 35  1  0
 35 36  1  0
 36 37  1  1
 37 38  1  0
 38 39  2  0
 38 40  1  0
 36 41  1  0
 41 42  2  0
 41 43  1  0
 43 44  1  0
 44 45  1  6
 45 46  1  0
 46 47  2  0
 47 48  1  0
 48 49  2  0
 49 50  1  0
 50 51  2  0
 44 52  1  0
 52 53  1  0
 52 54  2  0
 19 11  1  0
 51 46  1  0
 19 14  1  0
M  END
$$$$
