
     RDKit          3D

 32 36  0  0  0  0  0  0  0  0999 V2000
  -22.8484   37.8414  -27.7034 C   0  0  0  0  0  0  0  0  0  0  0  0
  -21.9996   38.8865  -27.1844 N   0  0  0  0  0  0  0  0  0  0  0  0
  -20.5496   38.5360  -27.0008 C   0  0  0  0  0  0  0  0  0  0  0  0
  -22.3513   40.1692  -26.8295 C   0  0  0  0  0  0  0  0  0  0  0  0
  -23.6210   40.4490  -26.9652 O   0  0  0  0  0  0  0  0  0  0  0  0
  -21.5855   41.2917  -26.3262 C   0  0  0  0  0  0  0  0  0  0  0  0
  -22.0646   42.6430  -26.5934 C   0  0  0  0  0  0  0  0  0  0  0  0
  -22.4569   43.7601  -26.8331 N   0  0  0  0  0  0  0  0  0  0  0  0
  -20.4385   41.2550  -25.6921 C   0  0  0  0  0  0  0  0  0  0  0  0
  -19.7939   42.4861  -25.1642 C   0  0  0  0  0  0  0  0  0  0  0  0
  -19.8633   43.7839  -25.4912 C   0  0  0  0  0  0  0  0  0  0  0  0
  -19.0449   44.4876  -24.6808 C   0  0  0  0  0  0  0  0  0  0  0  0
  -18.4525   43.5495  -23.8208 C   0  0  0  0  0  0  0  0  0  0  0  0
  -17.4847   43.8403  -22.7745 C   0  0  0  0  0  0  0  0  0  0  0  0
  -16.8778   45.0501  -22.5862 N   0  0  0  0  0  0  0  0  0  0  0  0
  -16.0561   44.9701  -21.5462 C   0  0  0  0  0  0  0  0  0  0  0  0
  -15.2133   45.8895  -20.9190 C   0  0  0  0  0  0  0  0  0  0  0  0
  -14.4878   45.5322  -19.8608 N   0  0  0  0  0  0  0  0  0  0  0  0
  -14.5265   44.3066  -19.3588 C   0  0  0  0  0  0  0  0  0  0  0  0
  -13.8732   43.7173  -18.3213 N   0  0  0  0  0  0  0  0  0  0  0  0
  -14.2660   42.4447  -18.2551 C   0  0  0  0  0  0  0  0  0  0  0  0
  -15.1973   42.1994  -19.2760 C   0  0  0  0  0  0  0  0  0  0  0  0
  -15.3588   43.3582  -19.9585 C   0  0  0  0  0  0  0  0  0  0  0  0
  -16.1279   43.6929  -21.0551 C   0  0  0  0  0  0  0  0  0  0  0  0
  -17.0206   42.9984  -21.8236 N   0  0  0  0  0  0  0  0  0  0  0  0
  -17.4204   41.6417  -21.6247 C   0  0  0  0  0  0  0  0  0  0  0  0
  -16.9898   40.6750  -22.6681 C   0  0  0  0  0  0  0  0  0  0  0  0
  -17.0524   39.2781  -22.0395 C   0  0  0  0  0  0  0  0  0  0  0  0
  -18.4894   39.0012  -21.6354 C   0  0  0  0  0  0  0  0  0  0  0  0
  -18.9891   40.0678  -20.6852 C   0  0  0  0  0  0  0  0  0  0  0  0
  -18.9315   41.4445  -21.4176 C   0  0  0  0  0  0  0  0  0  0  0  0
  -18.9392   42.4084  -24.1607 O   0  0  0  0  0  0  0  0  0  0  0  0
  1  2  1  0
  2  3  1  0
  2  4  1  0
  4  5  2  0
  4  6  1  0
  6  7  1  0
  7  8  3  0
  6  9  2  0
  9 10  1  0
 10 11  2  0
 11 12  1  0
 12 13  2  0
 13 14  1  0
 14 15  2  0
 15 16  1  0
 16 17  2  0
 17 18  1  0
 18 19  2  0
 19 20  1  0
 20 21  1  0
 21 22  2  0
 22 23  1  0
 23 24  2  0
 24 25  1  0
 25 26  1  0
 26 27  1  0
 27 28  1  0
 28 29  1  0
 29 30  1  0
 30 31  1  0
 13 32  1  0
 32 10  1  0
 25 14  1  0
 31 26  1  0
 24 16  1  0
 23 19  1  0
M  END
$$$$
