
     RDKit          3D

 21 23  0  0  0  0  0  0  0  0999 V2000
  -21.5463    3.3702  -33.4564 N   0  0  0  0  0  0  0  0  0  0  0  0
  -20.4159    2.5433  -33.1413 C   0  0  0  0  0  0  0  0  0  0  0  0
  -19.9998    2.3845  -31.8337 C   0  0  0  0  0  0  0  0  0  0  0  0
  -18.9259    1.5987  -31.5313 C   0  0  0  0  0  0  0  0  0  0  0  0
  -18.2557    0.9603  -32.5537 C   0  0  0  0  0  0  0  0  0  0  0  0
  -17.1071    0.1111  -32.2907 C   0  0  0  0  0  0  0  0  0  0  0  0
  -17.1556   -1.0948  -31.6470 C   0  0  0  0  0  0  0  0  0  0  0  0
  -16.0516   -1.8254  -31.4384 N   0  0  0  0  0  0  0  0  0  0  0  0
  -14.8207   -1.4373  -31.8398 C   0  0  0  0  0  0  0  0  0  0  0  0
  -13.6687   -2.2235  -31.6094 N   0  0  0  0  0  0  0  0  0  0  0  0
  -14.7249   -0.2199  -32.4971 C   0  0  0  0  0  0  0  0  0  0  0  0
  -13.4029    0.2197  -32.9395 C   0  0  0  0  0  0  0  0  0  0  0  0
  -12.4090    0.3517  -31.9869 C   0  0  0  0  0  0  0  0  0  0  0  0
  -11.1373    0.7603  -32.3212 C   0  0  0  0  0  0  0  0  0  0  0  0
  -10.8275    1.0528  -33.6525 C   0  0  0  0  0  0  0  0  0  0  0  0
   -9.2052    1.5677  -34.0392 Cl  0  0  0  0  0  0  0  0  0  0  0  0
  -11.8166    0.9179  -34.5776 C   0  0  0  0  0  0  0  0  0  0  0  0
  -13.0796    0.5104  -34.2346 C   0  0  0  0  0  0  0  0  0  0  0  0
  -15.8578    0.5327  -32.7127 C   0  0  0  0  0  0  0  0  0  0  0  0
  -18.6639    1.1131  -33.8622 C   0  0  0  0  0  0  0  0  0  0  0  0
  -19.7276    1.8995  -34.0947 N   0  0  0  0  0  0  0  0  0  0  0  0
  1  2  1  0
  2  3  2  0
  3  4  1  0
  4  5  2  0
  5  6  1  0
  6  7  2  0
  7  8  1  0
  8  9  2  0
  9 10  1  0
  9 11  1  0
 11 12  1  0
 12 13  2  0
 13 14  1  0
 14 15  2  0
 15 16  1  0
 15 17  1  0
 17 18  2  0
 11 19  2  0
  5 20  1  0
 20 21  2  0
 21  2  1  0
 19  6  1  0
 18 12  1  0
M  END
$$$$
