
     RDKit          3D

 10 10  0  0  0  0  0  0  0  0999 V2000
  -18.3998    2.1627  -31.0025 S   0  0  0  0  0  0  0  0  0  0  0  0
  -17.0748    1.4490  -31.5089 C   0  0  0  0  0  0  0  0  0  0  0  0
  -16.2003    0.5988  -31.8616 N   0  0  0  0  0  0  0  0  0  0  0  0
  -15.2262    0.1912  -30.8810 C   0  0  0  0  0  0  0  0  0  0  0  0
  -13.9635    0.9211  -31.1901 C   0  0  0  0  0  0  0  0  0  0  0  0
  -12.8558    0.6556  -30.4330 C   0  0  0  0  0  0  0  0  0  0  0  0
  -11.6835    1.3290  -30.7151 C   0  0  0  0  0  0  0  0  0  0  0  0
  -11.6121    2.2648  -31.7480 C   0  0  0  0  0  0  0  0  0  0  0  0
  -12.7306    2.5271  -32.5059 C   0  0  0  0  0  0  0  0  0  0  0  0
  -13.8894    1.8507  -32.2149 C   0  0  0  0  0  0  0  0  0  0  0  0
  1  2  2  0
  2  3  2  0
  3  4  1  0
  4  5  1  0
  5  6  2  0
  6  7  1  0
  7  8  2  0
  8  9  1  0
  9 10  2  0
 10  5  1  0
M  END
$$$$
