
     RDKit          3D

 24 26  0  0  0  0  0  0  0  0999 V2000
  -11.7561   44.1484  -20.2773 C   0  0  0  0  0  0  0  0  0  0  0  0
  -13.1954   43.8015  -20.3938 C   0  0  0  0  0  0  0  0  0  0  0  0
  -13.7954   42.9920  -19.4558 C   0  0  0  0  0  0  0  0  0  0  0  0
  -15.1242   42.6929  -19.5950 C   0  0  0  0  0  0  0  0  0  0  0  0
  -15.8833   43.1701  -20.6358 C   0  0  0  0  0  0  0  0  0  0  0  0
  -17.5755   42.8130  -20.8692 S   0  0  0  0  0  6  0  0  0  0  0  0
  -17.7734   42.0139  -22.1458 O   0  0  0  0  0  0  0  0  0  0  0  0
  -18.1058   42.0252  -19.6925 O   0  0  0  0  0  0  0  0  0  0  0  0
  -18.4523   44.2712  -21.0478 N   0  0  0  0  0  0  0  0  0  0  0  0
  -18.5138   45.2905  -20.0419 C   0  0  0  0  0  0  0  0  0  0  0  0
  -17.9658   46.5421  -20.2315 C   0  0  0  0  0  0  0  0  0  0  0  0
  -18.0096   47.5553  -19.2806 C   0  0  0  0  0  0  0  0  0  0  0  0
  -18.6313   47.2994  -18.0872 C   0  0  0  0  0  0  0  0  0  0  0  0
  -19.1855   46.0502  -17.8815 C   0  0  0  0  0  0  0  0  0  0  0  0
  -19.1397   45.0518  -18.8246 C   0  0  0  0  0  0  0  0  0  0  0  0
  -19.7188   46.1097  -16.6236 N   0  0  0  0  0  0  0  0  0  0  0  0
  -20.4006   44.9811  -16.0271 C   0  0  0  0  0  0  0  0  0  0  0  0
  -19.4890   47.3282  -16.1202 C   0  0  0  0  0  0  0  0  0  0  0  0
  -19.8725   47.6777  -14.9577 O   0  0  0  0  0  0  0  0  0  0  0  0
  -18.8177   48.0879  -17.0024 N   0  0  0  0  0  0  0  0  0  0  0  0
  -18.3757   49.4676  -16.8443 C   0  0  0  0  0  0  0  0  0  0  0  0
  -15.2394   43.9870  -21.5656 C   0  0  0  0  0  0  0  0  0  0  0  0
  -15.9792   44.5529  -22.7250 C   0  0  0  0  0  0  0  0  0  0  0  0
  -13.9078   44.3093  -21.4599 C   0  0  0  0  0  0  0  0  0  0  0  0
  1  2  1  0
  2  3  2  0
  3  4  1  0
  4  5  2  0
  5  6  1  0
  6  7  2  0
  6  8  2  0
  6  9  1  0
  9 10  1  0
 10 11  2  0
 11 12  1  0
 12 13  2  0
 13 14  1  0
 14 15  2  0
 14 16  1  0
 16 17  1  0
 16 18  1  0
 18 19  2  0
 18 20  1  0
 20 21  1  0
  5 22  1  0
 22 23  1  0
 22 24  2  0
 24  2  1  0
 15 10  1  0
 20 13  1  0
M  END
$$$$
