
     RDKit          3D

 28 32  0  0  0  0  0  0  0  0999 V2000
  -20.6748   -1.8169  -36.4366 C   0  0  0  0  0  0  0  0  0  0  0  0
  -20.2829   -1.8705  -35.1044 N   0  0  0  0  0  0  0  0  0  0  0  0
  -20.2531   -3.1461  -34.4698 C   0  0  0  0  0  0  0  0  0  0  0  0
  -20.4432   -0.7525  -34.2550 C   0  0  2  0  0  0  0  0  0  0  0  0
  -21.8397   -0.8076  -33.7580 C   0  0  0  0  0  0  0  0  0  0  0  0
  -22.3337   -0.1551  -32.6636 C   0  0  0  0  0  0  0  0  0  0  0  0
  -23.6792   -0.2936  -32.2969 C   0  0  0  0  0  0  0  0  0  0  0  0
  -24.5230   -1.0928  -33.0394 C   0  0  0  0  0  0  0  0  0  0  0  0
  -24.0296   -1.7537  -34.1452 C   0  0  0  0  0  0  0  0  0  0  0  0
  -22.7194   -1.5967  -34.4720 C   0  0  0  0  0  0  0  0  0  0  0  0
  -20.0593    0.4860  -34.9723 C   0  0  0  0  0  0  0  0  0  0  0  0
  -18.5917    0.8474  -34.7049 C   0  0  0  0  0  0  0  0  0  0  0  0
  -18.4950    1.4216  -33.2890 C   0  0  2  0  0  0  0  0  0  0  0  0
  -19.3374    0.5031  -32.3914 C   0  0  0  0  0  0  0  0  0  0  0  0
  -19.5489   -0.8593  -33.0341 C   0  0  0  0  0  0  0  0  0  0  0  0
  -19.0943    2.6453  -33.3228 O   0  0  0  0  0  0  0  0  0  0  0  0
  -18.2854    3.7400  -33.4566 C   0  0  0  0  0  0  0  0  0  0  0  0
  -17.3921    3.7745  -32.2064 C   0  0  0  0  0  0  0  0  0  0  0  0
  -16.5515    2.5609  -32.3192 C   0  0  0  0  0  0  0  0  0  0  0  0
  -15.2370    2.3192  -31.9795 C   0  0  0  0  0  0  0  0  0  0  0  0
  -14.2245    3.0513  -31.4301 C   0  0  0  0  0  0  0  0  0  0  0  0
  -12.9534    2.5130  -31.1972 C   0  0  0  0  0  0  0  0  0  0  0  0
  -11.9835    3.2953  -30.6454 F   0  0  0  0  0  0  0  0  0  0  0  0
  -12.7089    1.1971  -31.5323 C   0  0  0  0  0  0  0  0  0  0  0  0
  -13.7461    0.4511  -32.0940 C   0  0  0  0  0  0  0  0  0  0  0  0
  -14.9905    1.0047  -32.3137 C   0  0  0  0  0  0  0  0  0  0  0  0
  -16.1338    0.5053  -32.8315 N   0  0  0  0  0  0  0  0  0  0  0  0
  -17.0911    1.4239  -32.8461 C   0  0  0  0  0  0  0  0  0  0  0  0
  1  2  1  0
  2  3  1  0
  4  2  1  6
  4  5  1  0
  5  6  2  0
  6  7  1  0
  7  8  2  0
  8  9  1  0
  9 10  2  0
  4 11  1  0
 11 12  1  0
 13 12  1  6
 13 14  1  0
 14 15  1  0
 13 16  1  0
 16 17  1  0
 17 18  1  0
 18 19  1  0
 19 20  1  0
 20 21  2  0
 21 22  1  0
 22 23  1  0
 22 24  2  0
 24 25  1  0
 25 26  2  0
 26 27  1  0
 27 28  1  0
 15  4  1  0
 28 19  2  0
 10  5  1  0
 28 13  1  0
 26 20  1  0
M  END
$$$$
