
     RDKit          3D

 12 11  0  0  0  0  0  0  0  0999 V2000
  -14.5925    0.8160  -32.0124 Br  0  0  0  0  0  0  0  0  0  0  0  0
  -18.0424    0.4849  -32.5078 C   0  0  0  0  0  0  0  0  0  0  0  0
  -16.8057    1.0469  -32.0596 O   0  0  0  0  0  0  0  0  0  0  0  0
  -15.6090    0.3242  -32.1456 C   0  0  0  0  0  0  0  0  0  0  0  0
  -15.7105   -0.8301  -32.6370 O   0  0  0  0  0  0  0  0  0  0  0  0
  -14.3413    0.8723  -31.6977 C   0  0  0  0  0  0  0  0  0  0  0  0
  -14.2244    2.0680  -31.1866 C   0  0  0  0  0  0  0  0  0  0  0  0
  -12.9022    2.5503  -30.7553 C   0  0  0  0  0  0  0  0  0  0  0  0
  -11.7263    1.8570  -31.3687 C   0  0  0  0  0  0  0  0  0  0  0  0
  -12.1301    0.9845  -32.4211 N   0  0  0  0  0  0  0  0  0  0  0  0
  -11.0697    0.2482  -33.0276 C   0  0  0  0  0  0  0  0  0  0  0  0
  -13.1112    0.0579  -31.8225 C   0  0  0  0  0  0  0  0  0  0  0  0
  2  3  1  0
  3  4  1  0
  4  5  2  0
  4  6  1  0
  6  7  2  0
  7  8  1  0
  8  9  1  0
  9 10  1  0
 10 11  1  0
 10 12  1  0
 12  6  1  0
M  END
$$$$
