
     RDKit          3D

 11 11  0  0  0  0  0  0  0  0999 V2000
  -16.8581   36.6775  -20.5535 O   0  0  0  0  0  0  0  0  0  0  0  0
  -17.4698   35.7860  -21.6152 S   0  0  0  0  0  6  0  0  0  0  0  0
  -16.4032   35.5361  -22.6396 O   0  0  0  0  0  0  0  0  0  0  0  0
  -17.9772   34.3451  -20.8971 O   0  0  0  0  0  0  0  0  0  0  0  0
  -18.7944   36.6608  -22.2745 N   0  0  0  0  0  0  0  0  0  0  0  0
  -18.3616   37.7493  -23.1383 C   0  0  0  0  0  0  0  0  0  0  0  0
  -17.8855   38.8446  -22.2612 C   0  0  0  0  0  0  0  0  0  0  0  0
  -17.8900   40.2043  -22.8217 C   0  0  0  0  0  0  0  0  0  0  0  0
  -18.9723   40.5400  -23.7726 C   0  0  0  0  0  0  0  0  0  0  0  0
  -19.3272   39.4380  -24.7284 C   0  0  0  0  0  0  0  0  0  0  0  0
  -19.4952   38.1074  -24.0445 C   0  0  0  0  0  0  0  0  0  0  0  0
  1  2  2  0
  2  3  2  0
  2  4  1  0
  2  5  1  0
  5  6  1  0
  6  7  1  0
  7  8  1  0
  8  9  1  0
  9 10  1  0
 10 11  1  0
 11  6  1  0
M  END
$$$$
