
     RDKit          3D

 28 30  0  0  0  0  0  0  0  0999 V2000
  -24.7851   14.6144  -36.5673 C   0  0  0  0  0  0  0  0  0  0  0  0
  -24.7926   14.2954  -34.8035 S   0  0  0  0  0  4  0  0  0  0  0  0
  -25.7797   15.2187  -34.0815 O   0  0  0  0  0  0  0  0  0  0  0  0
  -23.1846   14.6703  -34.1724 C   0  0  0  0  0  0  0  0  0  0  0  0
  -22.2060   13.7071  -34.1232 C   0  0  0  0  0  0  0  0  0  0  0  0
  -20.9745   14.0249  -33.6312 C   0  0  0  0  0  0  0  0  0  0  0  0
  -20.6425   15.2933  -33.1660 C   0  0  0  0  0  0  0  0  0  0  0  0
  -19.3210   15.5973  -32.6491 C   0  0  0  0  0  0  0  0  0  0  0  0
  -18.3007   14.7388  -32.5610 N   0  0  0  0  0  0  0  0  0  0  0  0
  -17.2495   15.3825  -32.0364 C   0  0  0  0  0  0  0  0  0  0  0  0
  -15.9151   14.8907  -31.7432 C   0  0  0  0  0  0  0  0  0  0  0  0
  -14.7531   15.3485  -32.3212 C   0  0  0  0  0  0  0  0  0  0  0  0
  -13.5168   14.8340  -31.9951 C   0  0  0  0  0  0  0  0  0  0  0  0
  -13.3955   13.8260  -31.0636 C   0  0  0  0  0  0  0  0  0  0  0  0
  -12.1706   13.3206  -30.7449 F   0  0  0  0  0  0  0  0  0  0  0  0
  -14.5482   13.3555  -30.4749 C   0  0  0  0  0  0  0  0  0  0  0  0
  -15.7756   13.8837  -30.8150 C   0  0  0  0  0  0  0  0  0  0  0  0
  -17.6427   16.6810  -31.7955 C   0  0  0  0  0  0  0  0  0  0  0  0
  -16.8624   17.7595  -31.2340 C   0  0  0  0  0  0  0  0  0  0  0  0
  -16.3750   17.6894  -29.9425 C   0  0  0  0  0  0  0  0  0  0  0  0
  -15.6370   18.7466  -29.4606 C   0  0  0  0  0  0  0  0  0  0  0  0
  -15.3693   19.8427  -30.1886 N   0  0  0  0  0  0  0  0  0  0  0  0
  -15.8252   19.9485  -31.4474 C   0  0  0  0  0  0  0  0  0  0  0  0
  -16.5696   18.8995  -31.9553 C   0  0  0  0  0  0  0  0  0  0  0  0
  -18.9269   16.7891  -32.1825 N   0  0  0  0  0  0  0  0  0  0  0  0
  -21.6458   16.2364  -33.2289 C   0  0  0  0  0  0  0  0  0  0  0  0
  -22.8992   15.9402  -33.7220 C   0  0  0  0  0  0  0  0  0  0  0  0
  -19.1431   15.7638  -32.9444 Cl  0  0  0  0  0  0  0  0  0  0  0  0
  1  2  1  0
  2  3  2  0
  2  4  1  0
  4  5  2  0
  5  6  1  0
  6  7  2  0
  7  8  1  0
  8  9  2  0
  9 10  1  0
 10 11  1  0
 11 12  2  0
 12 13  1  0
 13 14  2  0
 14 15  1  0
 14 16  1  0
 16 17  2  0
 10 18  2  0
 18 19  1  0
 19 20  2  0
 20 21  1  0
 21 22  2  0
 22 23  1  0
 23 24  2  0
 18 25  1  0
  7 26  1  0
 26 27  2  0
 27  4  1  0
 25  8  1  0
 17 11  1  0
 24 19  1  0
M  END
$$$$
