
     RDKit          3D

 25 27  0  0  0  0  0  0  0  0999 V2000
  -11.5468   12.9134  -31.8258 C   0  0  0  0  0  0  0  0  0  0  0  0
  -12.8355   13.6224  -31.9879 C   0  0  0  0  0  0  0  0  0  0  0  0
  -12.8929   14.9904  -31.8271 C   0  0  0  0  0  0  0  0  0  0  0  0
  -14.0928   15.6314  -31.9804 C   0  0  0  0  0  0  0  0  0  0  0  0
  -15.2506   14.9446  -32.2924 C   0  0  0  0  0  0  0  0  0  0  0  0
  -16.5138   15.6498  -32.4485 C   0  0  0  0  0  0  0  0  0  0  0  0
  -16.8108   16.6497  -33.3925 C   0  0  0  0  0  0  0  0  0  0  0  0
  -15.8268   17.1113  -34.3503 C   0  0  0  0  0  0  0  0  0  0  0  0
  -15.0187   16.2787  -34.9085 O   0  0  0  0  0  0  0  0  0  0  0  0
  -15.6279   18.5034  -34.7868 C   0  0  0  0  0  0  0  0  0  0  0  0
  -14.6141   18.5957  -35.7504 F   0  0  0  0  0  0  0  0  0  0  0  0
  -18.0775   16.9902  -33.1524 N   0  0  0  0  0  0  0  0  0  0  0  0
  -18.8298   17.9819  -33.8917 C   0  0  0  0  0  0  0  0  0  0  0  0
  -19.3326   17.4364  -35.2082 C   0  0  0  0  0  0  0  0  0  0  0  0
  -20.3619   16.3595  -35.0220 C   0  0  0  0  0  0  0  0  0  0  0  0
  -21.6526   16.7984  -35.2875 O   0  0  0  0  0  0  0  0  0  0  0  0
  -18.5795   16.2517  -32.1067 C   0  0  0  0  0  0  0  0  0  0  0  0
  -19.7801   16.2398  -31.5148 N   0  0  0  0  0  0  0  0  0  0  0  0
  -19.9969   15.3906  -30.4868 C   0  0  0  0  0  0  0  0  0  0  0  0
  -19.0291   14.5438  -30.0324 N   0  0  0  0  0  0  0  0  0  0  0  0
  -17.8125   14.5262  -30.6000 C   0  0  0  0  0  0  0  0  0  0  0  0
  -16.7916   13.6540  -30.1439 N   0  0  0  0  0  0  0  0  0  0  0  0
  -17.6032   15.4002  -31.6514 C   0  0  0  0  0  0  0  0  0  0  0  0
  -15.1470   13.5775  -32.4440 C   0  0  0  0  0  0  0  0  0  0  0  0
  -13.9641   12.8815  -32.3010 C   0  0  0  0  0  0  0  0  0  0  0  0
  1  2  1  0
  2  3  2  0
  3  4  1  0
  4  5  2  0
  5  6  1  0
  6  7  2  0
  7  8  1  0
  8  9  2  0
  8 10  1  0
 10 11  1  0
  7 12  1  0
 12 13  1  0
 13 14  1  0
 14 15  1  0
 15 16  1  0
 12 17  1  0
 17 18  2  0
 18 19  1  0
 19 20  2  0
 20 21  1  0
 21 22  1  0
 21 23  2  0
  5 24  1  0
 24 25  2  0
 25  2  1  0
 23  6  1  0
 23 17  1  0
M  END
$$$$
