
     RDKit          3D

 25 28  0  0  0  0  0  0  0  0999 V2000
  -20.9385   37.3650  -25.2703 C   0  0  0  0  0  0  0  0  0  0  0  0
  -19.9983   37.7966  -24.1921 C   0  0  0  0  0  0  0  0  0  0  0  0
  -19.4007   36.8924  -23.3551 C   0  0  0  0  0  0  0  0  0  0  0  0
  -18.5391   37.3117  -22.3654 C   0  0  0  0  0  0  0  0  0  0  0  0
  -17.9195   36.3484  -21.4929 N   0  0  0  0  0  0  0  0  0  0  0  0
  -17.9413   34.9518  -21.7483 C   0  0  0  0  0  0  0  0  0  0  0  0
  -19.1086   34.2847  -22.0006 C   0  0  0  0  0  0  0  0  0  0  0  0
  -19.1650   32.9046  -22.2399 C   0  0  0  0  0  0  0  0  0  0  0  0
  -20.4031   32.2548  -22.4959 N   0  0  0  0  0  0  0  0  0  0  0  0
  -17.9900   32.2521  -22.2085 N   0  0  0  0  0  0  0  0  0  0  0  0
  -16.8322   32.8885  -21.9625 C   0  0  0  0  0  0  0  0  0  0  0  0
  -16.7906   34.2137  -21.7349 N   0  0  0  0  0  0  0  0  0  0  0  0
  -18.3010   38.6494  -22.2460 C   0  0  0  0  0  0  0  0  0  0  0  0
  -17.5257   39.0739  -21.3620 O   0  0  0  0  0  0  0  0  0  0  0  0
  -18.8752   39.5795  -23.0572 N   0  0  0  0  0  0  0  0  0  0  0  0
  -19.7062   39.1634  -24.0114 C   0  0  0  0  0  0  0  0  0  0  0  0
  -20.2042   40.3107  -24.7709 C   0  0  0  0  0  0  0  0  0  0  0  0
  -21.0092   40.2497  -25.7394 O   0  0  0  0  0  0  0  0  0  0  0  0
  -19.5931   41.4368  -24.1815 N   0  0  0  0  0  0  0  0  0  0  0  0
  -18.7709   40.9985  -23.1008 C   0  0  0  0  0  0  0  0  0  0  0  0
  -17.3202   41.3242  -23.4443 C   0  0  0  0  0  0  0  0  0  0  0  0
  -16.6617   42.1824  -22.4092 C   0  0  0  0  0  0  0  0  0  0  0  0
  -17.4675   43.4532  -22.2028 C   0  0  0  0  0  0  0  0  0  0  0  0
  -18.9281   43.1470  -21.9643 C   0  0  0  0  0  0  0  0  0  0  0  0
  -19.1594   41.6562  -21.7893 C   0  0  0  0  0  0  0  0  0  0  0  0
  1  2  1  0
  2  3  1  0
  3  4  2  0
  4  5  1  0
  5  6  1  0
  6  7  2  0
  7  8  1  0
  8  9  1  0
  8 10  2  0
 10 11  1  0
 11 12  2  0
  4 13  1  0
 13 14  2  0
 13 15  1  0
 15 16  1  0
 16 17  1  0
 17 18  2  0
 17 19  1  0
 19 20  1  0
 20 21  1  0
 21 22  1  0
 22 23  1  0
 23 24  1  0
 24 25  1  0
 16  2  2  0
 25 20  1  0
 12  6  1  0
 20 15  1  0
M  END
$$$$
