
     RDKit          3D

 25 26  0  0  0  0  0  0  0  0999 V2000
  -14.4477   20.9912  -35.3275 C   0  0  0  0  0  0  0  0  0  0  0  0
  -13.9295   19.6237  -35.6419 C   0  0  0  0  0  0  0  0  0  0  0  0
  -14.5554   18.5535  -34.7494 C   0  0  0  0  0  0  0  0  0  0  0  0
  -15.7363   17.9986  -35.5191 C   0  0  0  0  0  0  0  0  0  0  0  0
  -16.2663   16.8003  -34.8858 N   0  0  0  0  0  0  0  0  0  0  0  0
  -15.3940   15.9064  -34.2124 C   0  0  0  0  0  0  0  0  0  0  0  0
  -15.6137   15.7879  -32.7722 C   0  0  0  0  0  0  0  0  0  0  0  0
  -16.1032   14.6007  -32.2600 C   0  0  0  0  0  0  0  0  0  0  0  0
  -16.3369   14.4205  -30.9103 C   0  0  0  0  0  0  0  0  0  0  0  0
  -16.0778   15.4600  -30.0083 C   0  0  0  0  0  0  0  0  0  0  0  0
  -16.3234   15.2727  -28.5838 C   0  0  0  0  0  0  0  0  0  0  0  0
  -16.9356   14.2255  -28.2150 O   0  0  0  0  0  0  0  0  0  0  0  0
  -15.9239   16.1834  -27.5804 N   0  0  0  0  0  0  0  0  0  0  0  0
  -16.1835   15.9606  -26.2635 O   0  0  0  0  0  0  0  0  0  0  0  0
  -15.5909   16.6459  -30.5040 C   0  0  0  0  0  0  0  0  0  0  0  0
  -15.3643   16.7968  -31.8803 C   0  0  0  0  0  0  0  0  0  0  0  0
  -17.6553   16.5708  -34.9489 C   0  0  0  0  0  0  0  0  0  0  0  0
  -18.1349   15.4105  -34.6710 O   0  0  0  0  0  0  0  0  0  0  0  0
  -18.6445   17.5253  -35.3024 N   0  0  0  0  0  0  0  0  0  0  0  0
  -20.0182   17.1982  -35.3234 C   0  0  0  0  0  0  0  0  0  0  0  0
  -20.9894   18.0583  -34.8711 C   0  0  0  0  0  0  0  0  0  0  0  0
  -22.3363   17.6841  -34.9145 C   0  0  0  0  0  0  0  0  0  0  0  0
  -22.7086   16.4646  -35.4043 C   0  0  0  0  0  0  0  0  0  0  0  0
  -21.7488   15.5991  -35.8579 C   0  0  0  0  0  0  0  0  0  0  0  0
  -20.4147   15.9786  -35.8111 C   0  0  0  0  0  0  0  0  0  0  0  0
  1  2  1  0
  2  3  1  0
  3  4  1  0
  4  5  1  0
  5  6  1  0
  6  7  1  0
  7  8  2  0
  8  9  1  0
  9 10  2  0
 10 11  1  0
 11 12  2  0
 11 13  1  0
 13 14  1  0
 10 15  1  0
 15 16  2  0
  5 17  1  0
 17 18  2  0
 17 19  1  0
 19 20  1  0
 20 21  2  0
 21 22  1  0
 22 23  2  0
 23 24  1  0
 24 25  2  0
 16  7  1  0
 25 20  1  0
M  END
$$$$
