
     RDKit          3D

 22 24  0  0  0  0  0  0  0  0999 V2000
  -32.2542   16.4735  -23.3243 O   0  0  0  0  0  0  0  0  0  0  0  0
  -31.0936   16.5764  -23.7686 C   0  0  0  0  0  0  0  0  0  0  0  0
  -30.0413   16.1448  -22.9865 O   0  0  0  0  0  0  0  0  0  0  0  0
  -30.9017   17.1486  -25.0955 C   0  0  0  0  0  0  0  0  0  0  0  0
  -31.9759   17.5154  -25.8764 C   0  0  0  0  0  0  0  0  0  0  0  0
  -31.7866   18.0569  -27.1325 C   0  0  0  0  0  0  0  0  0  0  0  0
  -30.5075   18.2352  -27.6171 C   0  0  0  0  0  0  0  0  0  0  0  0
  -29.4097   17.8711  -26.8440 C   0  0  0  0  0  0  0  0  0  0  0  0
  -27.7659   18.0784  -27.4165 S   0  0  0  0  0  6  0  0  0  0  0  0
  -27.8358   18.0660  -28.9281 O   0  0  0  0  0  0  0  0  0  0  0  0
  -27.2289   19.4088  -26.9935 O   0  0  0  0  0  0  0  0  0  0  0  0
  -26.8397   16.7656  -26.9080 N   0  0  0  0  0  0  0  0  0  0  0  0
  -26.1465   16.0962  -27.9599 C   0  0  0  0  0  0  0  0  0  0  0  0
  -25.4024   14.8766  -27.5696 C   0  0  0  0  0  0  0  0  0  0  0  0
  -24.6452   15.0436  -26.3155 C   0  0  0  0  0  0  0  0  0  0  0  0
  -23.5549   14.2505  -26.0477 C   0  0  0  0  0  0  0  0  0  0  0  0
  -22.8349   14.3961  -24.8751 C   0  0  0  0  0  0  0  0  0  0  0  0
  -23.2357   15.3641  -23.9673 C   0  0  0  0  0  0  0  0  0  0  0  0
  -24.3378   16.1570  -24.2511 C   0  0  0  0  0  0  0  0  0  0  0  0
  -25.0558   16.0067  -25.4281 C   0  0  0  0  0  0  0  0  0  0  0  0
  -26.2042   16.8694  -25.6694 C   0  0  0  0  0  0  0  0  0  0  0  0
  -29.6197   17.3331  -25.5945 C   0  0  0  0  0  0  0  0  0  0  0  0
  1  2  2  0
  2  3  1  0
  2  4  1  0
  4  5  2  0
  5  6  1  0
  6  7  2  0
  7  8  1  0
  8  9  1  0
  9 10  2  0
  9 11  2  0
  9 12  1  0
 12 13  1  0
 13 14  1  0
 14 15  1  0
 15 16  2  0
 16 17  1  0
 17 18  2  0
 18 19  1  0
 19 20  2  0
 20 21  1  0
  8 22  2  0
 22  4  1  0
 21 12  1  0
 20 15  1  0
M  END
$$$$
