
     RDKit          3D

 29 33  0  0  0  0  0  0  0  0999 V2000
  -12.9922   20.1626  -43.6058 C   0  0  0  0  0  0  0  0  0  0  0  0
  -14.2564   20.5118  -43.6605 C   0  0  0  0  0  0  0  0  0  0  0  0
  -14.7399   21.5340  -42.6483 C   0  0  0  0  0  0  0  0  0  0  0  0
  -15.2588   19.9849  -44.6263 C   0  0  1  0  0  0  0  0  0  0  0  0
  -16.5967   19.6779  -43.9800 C   0  0  0  0  0  0  0  0  0  0  0  0
  -17.1729   21.0490  -43.8690 C   0  0  0  0  0  0  0  0  0  0  0  0
  -16.5192   21.8517  -44.7787 C   0  0  0  0  0  0  0  0  0  0  0  0
  -16.8733   23.1986  -44.8761 C   0  0  0  0  0  0  0  0  0  0  0  0
  -17.8595   23.6847  -44.0657 C   0  0  0  0  0  0  0  0  0  0  0  0
  -18.4989   22.8565  -43.1616 C   0  0  0  0  0  0  0  0  0  0  0  0
  -18.1660   21.5268  -43.0491 C   0  0  0  0  0  0  0  0  0  0  0  0
  -18.8285   20.7084  -42.1255 O   0  0  0  0  0  0  0  0  0  0  0  0
  -20.0051   21.1413  -41.4695 C   0  0  2  0  0  0  0  0  0  0  0  0
  -21.1819   20.9480  -42.3919 C   0  0  0  0  0  0  0  0  0  0  0  0
  -22.3593   21.4986  -41.8385 O   0  0  0  0  0  0  0  0  0  0  0  0
  -22.3196   22.5579  -40.9211 C   0  0  0  0  0  0  0  0  0  0  0  0
  -23.4983   23.0544  -40.4145 C   0  0  0  0  0  0  0  0  0  0  0  0
  -23.4994   24.0920  -39.5134 C   0  0  0  0  0  0  0  0  0  0  0  0
  -24.6972   24.5706  -39.0213 O   0  0  0  0  0  0  0  0  0  0  0  0
  -25.8585   23.7498  -39.0241 C   0  0  0  0  0  0  0  0  0  0  0  0
  -22.3018   24.6351  -39.1185 C   0  0  0  0  0  0  0  0  0  0  0  0
  -22.2703   25.6837  -38.2098 O   0  0  0  0  0  0  0  0  0  0  0  0
  -21.8505   25.5027  -36.8689 C   0  0  0  0  0  0  0  0  0  0  0  0
  -21.1150   24.1455  -39.6196 C   0  0  0  0  0  0  0  0  0  0  0  0
  -21.1265   23.1088  -40.5191 C   0  0  0  0  0  0  0  0  0  0  0  0
  -19.8502   22.5882  -41.0530 C   0  0  2  0  0  0  0  0  0  0  0  0
  -19.5491   23.3745  -42.2987 C   0  0  0  0  0  0  0  0  0  0  0  0
  -20.1675   24.4252  -42.5868 O   0  0  0  0  0  0  0  0  0  0  0  0
  -15.5788   21.1233  -45.4640 O   0  0  0  0  0  0  0  0  0  0  0  0
  1  2  2  0
  2  3  1  0
  4  2  1  1
  4  5  1  0
  5  6  1  0
  6  7  2  0
  7  8  1  0
  8  9  2  0
  9 10  1  0
 10 11  2  0
 11 12  1  0
 12 13  1  0
 13 14  1  6
 14 15  1  0
 15 16  1  0
 16 17  2  0
 17 18  1  0
 18 19  1  0
 19 20  1  0
 18 21  2  0
 21 22  1  0
 22 23  1  0
 21 24  1  0
 24 25  2  0
 25 26  1  0
 26 27  1  6
 27 28  2  0
  7 29  1  0
 29  4  1  0
 11  6  1  0
 26 13  1  0
 27 10  1  0
 25 16  1  0
M  END
$$$$
