
     RDKit          3D

 15 15  0  0  0  0  0  0  0  0999 V2000
  -19.0080   41.0304  -23.1360 C   0  0  0  0  0  0  0  0  0  0  0  0
  -18.1573   40.0356  -22.4680 C   0  0  0  0  0  0  0  0  0  0  0  0
  -17.5741   40.2359  -21.3376 N   0  0  0  0  0  0  0  0  0  0  0  0
  -18.1224   39.7647  -20.1445 C   0  0  0  0  0  0  0  0  0  0  0  0
  -18.5657   39.3805  -19.1375 N   0  0  0  0  0  0  0  0  0  0  0  0
  -17.9754   38.7807  -23.1198 N   0  0  0  0  0  0  0  0  0  0  0  0
  -18.6201   38.5585  -24.3854 C   0  0  0  0  0  0  0  0  0  0  0  0
  -17.1402   37.8139  -22.4411 C   0  0  0  0  0  0  0  0  0  0  0  0
  -17.7960   36.5137  -22.2677 C   0  0  0  0  0  0  0  0  0  0  0  0
  -17.3553   35.3655  -22.8916 C   0  0  0  0  0  0  0  0  0  0  0  0
  -17.9803   34.1490  -22.7208 C   0  0  0  0  0  0  0  0  0  0  0  0
  -19.0816   34.0574  -21.9048 C   0  0  0  0  0  0  0  0  0  0  0  0
  -19.8691   32.5068  -21.6939 Cl  0  0  0  0  0  0  0  0  0  0  0  0
  -19.5144   35.1716  -21.2954 N   0  0  0  0  0  0  0  0  0  0  0  0
  -18.9061   36.3586  -21.4610 C   0  0  0  0  0  0  0  0  0  0  0  0
  1  2  1  0
  2  3  2  3
  3  4  1  0
  4  5  3  0
  2  6  1  0
  6  7  1  0
  6  8  1  0
  8  9  1  0
  9 10  2  0
 10 11  1  0
 11 12  2  0
 12 13  1  0
 12 14  1  0
 14 15  2  0
 15  9  1  0
M  END
$$$$
