
     RDKit          3D

 29 32  0  0  0  0  0  0  0  0999 V2000
  -18.4792   44.3841  -29.3439 C   0  0  0  0  0  0  0  0  0  0  0  0
  -18.7013   43.8636  -28.0508 N   0  0  0  0  0  0  0  0  0  0  0  0
  -19.1835   42.5447  -27.9238 C   0  0  0  0  0  0  0  0  0  0  0  0
  -20.3969   42.4192  -27.0085 C   0  0  0  0  0  0  0  0  0  0  0  0
  -20.0354   43.0990  -25.7379 C   0  0  0  0  0  0  0  0  0  0  0  0
  -20.8028   42.7992  -24.5238 C   0  0  0  0  0  0  0  0  0  0  0  0
  -20.5120   43.4672  -23.3148 N   0  0  0  0  0  0  0  0  0  0  0  0
  -19.8616   42.9458  -22.1620 C   0  0  0  0  0  0  0  0  0  0  0  0
  -19.4718   43.8039  -21.1516 C   0  0  0  0  0  0  0  0  0  0  0  0
  -18.8360   43.3525  -20.0163 C   0  0  0  0  0  0  0  0  0  0  0  0
  -18.6110   41.9846  -19.9496 C   0  0  0  0  0  0  0  0  0  0  0  0
  -18.0251   41.2448  -18.9954 N   0  0  0  0  0  0  0  0  0  0  0  0
  -18.0453   39.9617  -19.3928 C   0  0  0  0  0  0  0  0  0  0  0  0
  -18.6567   39.8820  -20.6253 C   0  0  0  0  0  0  0  0  0  0  0  0
  -18.9027   38.6998  -21.4465 C   0  0  0  0  0  0  0  0  0  0  0  0
  -19.7608   38.7827  -22.5491 C   0  0  0  0  0  0  0  0  0  0  0  0
  -20.0177   37.6907  -23.3509 C   0  0  0  0  0  0  0  0  0  0  0  0
  -19.4340   36.4676  -23.0934 C   0  0  0  0  0  0  0  0  0  0  0  0
  -18.5813   36.3700  -22.0037 C   0  0  0  0  0  0  0  0  0  0  0  0
  -18.0162   35.1364  -21.7756 O   0  0  0  0  0  0  0  0  0  0  0  0
  -16.6976   34.7879  -22.1313 C   0  0  0  0  0  0  0  0  0  0  0  0
  -15.8072   35.7345  -21.6232 F   0  0  0  0  0  0  0  0  0  0  0  0
  -16.4930   34.7427  -23.4904 F   0  0  0  0  0  0  0  0  0  0  0  0
  -16.3349   33.5488  -21.6096 F   0  0  0  0  0  0  0  0  0  0  0  0
  -18.3327   37.4760  -21.2071 C   0  0  0  0  0  0  0  0  0  0  0  0
  -19.0000   41.1634  -20.9483 N   0  0  0  0  0  0  0  0  0  0  0  0
  -19.6110   41.6111  -22.0352 N   0  0  0  0  0  0  0  0  0  0  0  0
  -19.9881   44.5930  -26.0766 C   0  0  0  0  0  0  0  0  0  0  0  0
  -18.7744   44.7513  -26.9711 C   0  0  0  0  0  0  0  0  0  0  0  0
  1  2  1  0
  2  3  1  0
  3  4  1  0
  4  5  1  0
  5  6  1  0
  6  7  1  0
  7  8  1  0
  8  9  1  0
  9 10  2  0
 10 11  1  0
 11 12  2  0
 12 13  1  0
 13 14  2  0
 14 15  1  0
 15 16  2  0
 16 17  1  0
 17 18  2  0
 18 19  1  0
 19 20  1  0
 20 21  1  0
 21 22  1  0
 21 23  1  0
 21 24  1  0
 19 25  2  0
 14 26  1  0
 26 27  1  0
  5 28  1  0
 28 29  1  0
 29  2  1  0
 27  8  2  0
 26 11  1  0
 25 15  1  0
M  END
$$$$
