
     RDKit          3D

 19 21  0  0  0  0  0  0  0  0999 V2000
  -17.7032   43.2702  -19.0214 N   0  0  0  0  0  0  0  0  0  0  0  0
  -17.7415   42.3830  -19.7860 C   0  0  0  0  0  0  0  0  0  0  0  0
  -17.7768   41.3067  -20.7428 C   0  0  0  0  0  0  0  0  0  0  0  0
  -16.7841   41.1536  -21.6768 C   0  0  0  0  0  0  0  0  0  0  0  0
  -16.8412   40.1174  -22.5794 C   0  0  0  0  0  0  0  0  0  0  0  0
  -17.8838   39.2164  -22.5701 C   0  0  0  0  0  0  0  0  0  0  0  0
  -17.9216   38.1707  -23.4968 O   0  0  0  0  0  0  0  0  0  0  0  0
  -18.4798   36.9516  -23.2330 C   0  0  0  0  0  0  0  0  0  0  0  0
  -19.8435   36.7949  -23.3924 C   0  0  0  0  0  0  0  0  0  0  0  0
  -20.4101   35.5596  -23.1251 C   0  0  0  0  0  0  0  0  0  0  0  0
  -19.6024   34.5149  -22.7064 C   0  0  0  0  0  0  0  0  0  0  0  0
  -18.2461   34.6609  -22.5454 C   0  0  0  0  0  0  0  0  0  0  0  0
  -17.6789   35.9081  -22.8158 C   0  0  0  0  0  0  0  0  0  0  0  0
  -17.6990   33.3637  -22.1032 C   0  0  0  0  0  0  0  0  0  0  0  0
  -18.7272   32.6804  -21.4680 O   0  0  0  0  0  0  0  0  0  0  0  0
  -19.9012   33.0146  -22.3141 B   0  0  0  0  0  0  0  0  0  0  0  0
  -21.2398   32.4536  -22.2482 O   0  0  0  0  0  0  0  0  0  0  0  0
  -18.8846   39.3654  -21.6332 C   0  0  0  0  0  0  0  0  0  0  0  0
  -18.8293   40.4017  -20.7291 C   0  0  0  0  0  0  0  0  0  0  0  0
  1  2  3  0
  2  3  1  0
  3  4  2  0
  4  5  1  0
  5  6  2  0
  6  7  1  0
  7  8  1  0
  8  9  2  0
  9 10  1  0
 10 11  2  0
 11 12  1  0
 12 13  2  0
 12 14  1  0
 14 15  1  0
 15 16  1  0
 16 17  1  0
  6 18  1  0
 18 19  2  0
 19  3  1  0
 13  8  1  0
 16 11  1  0
M  END
$$$$
