
     RDKit          3D

 16 17  0  0  0  0  0  0  0  0999 V2000
  -21.2141   32.9223  -21.1584 O   0  0  0  0  0  0  0  0  0  0  0  0
  -20.7854   32.3418  -22.1768 C   0  0  0  0  0  0  0  0  0  0  0  0
  -21.6675   31.8659  -23.1302 O   0  0  0  0  0  0  0  0  0  0  0  0
  -19.3337   32.1414  -22.4034 C   0  0  0  0  0  0  0  0  0  0  0  0
  -18.5858   33.2559  -21.7047 C   0  0  0  0  0  0  0  0  0  0  0  0
  -18.7463   34.5427  -22.4590 C   0  0  0  0  0  0  0  0  0  0  0  0
  -17.8388   35.6193  -21.9221 C   0  0  0  0  0  0  0  0  0  0  0  0
  -17.9975   36.8866  -22.6736 C   0  0  2  0  0  0  0  0  0  0  0  0
  -16.5329   37.9749  -22.5039 S   0  0  0  0  0  0  0  0  0  0  0  0
  -17.4205   39.5779  -22.3837 C   0  0  0  0  0  0  0  0  0  0  0  0
  -18.8177   39.1629  -22.7572 C   0  0  2  0  0  0  0  0  0  0  0  0
  -19.7099   39.9652  -21.9253 N   0  0  0  0  0  0  0  0  0  0  0  0
  -19.5746   39.3857  -20.6272 C   0  0  0  0  0  0  0  0  0  0  0  0
  -19.8463   39.9302  -19.5166 O   0  0  0  0  0  0  0  0  0  0  0  0
  -19.0688   38.0520  -20.7690 N   0  0  0  0  0  0  0  0  0  0  0  0
  -19.0742   37.7883  -22.1801 C   0  0  2  0  0  0  0  0  0  0  0  0
  1  2  2  0
  2  3  1  0
  2  4  1  0
  4  5  1  0
  5  6  1  0
  6  7  1  0
  8  7  1  1
  8  9  1  0
  9 10  1  0
 11 10  1  1
 11 12  1  0
 12 13  1  0
 13 14  2  0
 13 15  1  0
 16 15  1  1
 16  8  1  0
 16 11  1  0
M  END
$$$$
