
     RDKit          3D

 24 27  0  0  0  0  0  0  0  0999 V2000
  -22.2243   19.6751  -39.3031 C   0  0  0  0  0  0  0  0  0  0  0  0
  -20.9017   20.4264  -39.0825 C   0  0  0  0  0  0  0  0  0  0  0  0
  -20.9788   21.0251  -37.7315 C   0  0  0  0  0  0  0  0  0  0  0  0
  -19.8028   19.3738  -39.1287 C   0  0  0  0  0  0  0  0  0  0  0  0
  -20.7682   21.3629  -40.1767 N   0  0  0  0  0  0  0  0  0  0  0  0
  -19.7649   21.2706  -41.0414 N   0  0  0  0  0  0  0  0  0  0  0  0
  -19.8569   22.2511  -41.9759 C   0  0  0  0  0  0  0  0  0  0  0  0
  -18.9376   22.5080  -43.0783 C   0  0  0  0  0  0  0  0  0  0  0  0
  -17.6168   22.8932  -42.8696 C   0  0  0  0  0  0  0  0  0  0  0  0
  -16.7753   23.1738  -43.9349 C   0  0  0  0  0  0  0  0  0  0  0  0
  -17.2073   23.0821  -45.2498 C   0  0  0  0  0  0  0  0  0  0  0  0
  -18.5224   22.6976  -45.4659 C   0  0  0  0  0  0  0  0  0  0  0  0
  -18.9660   22.5837  -46.7661 C   0  0  0  0  0  0  0  0  0  0  0  0
  -20.2605   22.1868  -46.9993 C   0  0  0  0  0  0  0  0  0  0  0  0
  -21.1257   21.9018  -45.9545 C   0  0  0  0  0  0  0  0  0  0  0  0
  -20.6449   22.0278  -44.6709 C   0  0  0  0  0  0  0  0  0  0  0  0
  -19.3523   22.4212  -44.3838 C   0  0  0  0  0  0  0  0  0  0  0  0
  -20.9786   22.9848  -41.6615 C   0  0  0  0  0  0  0  0  0  0  0  0
  -21.5854   24.1033  -42.2185 C   0  0  0  0  0  0  0  0  0  0  0  0
  -21.0144   24.7027  -43.3565 N   0  0  0  0  0  0  0  0  0  0  0  0
  -22.7088   24.6004  -41.6341 N   0  0  0  0  0  0  0  0  0  0  0  0
  -23.1948   23.9974  -40.5430 C   0  0  0  0  0  0  0  0  0  0  0  0
  -22.6182   22.9140  -39.9933 N   0  0  0  0  0  0  0  0  0  0  0  0
  -21.5093   22.4005  -40.5450 C   0  0  0  0  0  0  0  0  0  0  0  0
  1  2  1  0
  2  3  1  0
  2  4  1  0
  2  5  1  0
  5  6  1  0
  6  7  2  0
  7  8  1  0
  8  9  2  0
  9 10  1  0
 10 11  2  0
 11 12  1  0
 12 13  2  0
 13 14  1  0
 14 15  2  0
 15 16  1  0
 16 17  2  0
  7 18  1  0
 18 19  2  0
 19 20  1  0
 19 21  1  0
 21 22  2  0
 22 23  1  0
 23 24  2  0
 24  5  1  0
 17  8  1  0
 24 18  1  0
 17 12  1  0
M  END
$$$$
