
     RDKit          3D

 30 34  0  0  0  0  0  0  0  0999 V2000
  -30.1330   21.3270  -30.6611 O   0  0  0  0  0  0  0  0  0  0  0  0
  -29.6673   20.8593  -29.5803 C   0  0  0  0  0  0  0  0  0  0  0  0
  -28.9354   19.6959  -29.3914 O   0  0  0  0  0  0  0  0  0  0  0  0
  -28.5982   19.5204  -28.0343 C   0  0  1  0  0  0  0  0  0  0  0  0
  -29.2693   18.3003  -27.5022 C   0  0  0  0  0  0  0  0  0  0  0  0
  -28.3462   17.3591  -26.8009 C   0  0  0  0  0  0  0  0  0  0  0  0
  -27.0757   17.0867  -27.5326 C   0  0  1  0  0  0  0  0  0  0  0  0
  -27.3015   16.1652  -28.7055 C   0  0  0  0  0  0  0  0  0  0  0  0
  -28.3415   16.2766  -29.4004 O   0  0  0  0  0  0  0  0  0  0  0  0
  -26.3678   15.1681  -29.0510 N   0  0  0  0  0  0  0  0  0  0  0  0
  -25.4597   14.5516  -28.1525 C   0  0  0  0  0  0  0  0  0  0  0  0
  -24.2691   14.9987  -27.6775 C   0  0  0  0  0  0  0  0  0  0  0  0
  -23.7382   14.0339  -26.8138 C   0  0  0  0  0  0  0  0  0  0  0  0
  -24.6390   13.0364  -26.8039 N   0  0  0  0  0  0  0  0  0  0  0  0
  -24.4670   11.8444  -26.0317 C   0  0  0  0  0  0  0  0  0  0  0  0
  -24.6672   10.6017  -26.5944 C   0  0  0  0  0  0  0  0  0  0  0  0
  -24.5146    9.4227  -25.8935 C   0  0  0  0  0  0  0  0  0  0  0  0
  -24.1472    9.4801  -24.5762 C   0  0  0  0  0  0  0  0  0  0  0  0
  -23.9420   10.6993  -23.9921 C   0  0  0  0  0  0  0  0  0  0  0  0
  -24.0966   11.8781  -24.7002 C   0  0  0  0  0  0  0  0  0  0  0  0
  -23.8875   13.0645  -24.0978 F   0  0  0  0  0  0  0  0  0  0  0  0
  -25.6415   13.3382  -27.5837 N   0  0  0  0  0  0  0  0  0  0  0  0
  -26.3997   18.3098  -28.0599 C   0  0  0  0  0  0  0  0  0  0  0  0
  -27.1269   19.5823  -27.7865 C   0  0  0  0  0  0  0  0  0  0  0  0
  -29.2081   20.7239  -27.3662 C   0  0  0  0  0  0  0  0  0  0  0  0
  -29.2211   21.1208  -26.0434 C   0  0  0  0  0  0  0  0  0  0  0  0
  -29.8470   22.2645  -25.6803 N   0  0  0  0  0  0  0  0  0  0  0  0
  -30.4709   23.0485  -26.5735 C   0  0  0  0  0  0  0  0  0  0  0  0
  -30.4808   22.6868  -27.9064 C   0  0  0  0  0  0  0  0  0  0  0  0
  -29.8388   21.5096  -28.2936 C   0  0  0  0  0  0  0  0  0  0  0  0
  1  2  2  0
  2  3  1  0
  3  4  1  0
  4  5  1  1
  5  6  1  0
  6  7  1  0
  7  8  1  6
  8  9  2  0
  8 10  1  0
 10 11  1  0
 11 12  1  0
 12 13  2  0
 13 14  1  0
 14 15  1  0
 15 16  2  0
 16 17  1  0
 17 18  2  0
 18 19  1  0
 19 20  2  0
 20 21  1  0
 14 22  1  0
  7 23  1  0
 23 24  1  0
  4 25  1  0
 25 26  2  0
 26 27  1  0
 27 28  2  0
 28 29  1  0
 29 30  2  0
 30  2  1  0
 24  4  1  0
 30 25  1  0
 22 11  2  0
 20 15  1  0
M  END
$$$$
