
     RDKit          3D

 35 36  0  0  0  0  0  0  0  0999 V2000
  -28.3080   19.7482  -27.1027 C   0  0  0  0  0  0  0  0  0  0  0  0
  -28.4500   18.9203  -28.3197 C   0  0  0  0  0  0  0  0  0  0  0  0
  -27.8960   19.3202  -29.4466 C   0  0  0  0  0  0  0  0  0  0  0  0
  -26.6792   18.7264  -29.9695 C   0  0  0  0  0  0  0  0  0  0  0  0
  -26.5176   17.4654  -29.8600 O   0  0  0  0  0  0  0  0  0  0  0  0
  -25.6670   19.4148  -30.5840 O   0  0  0  0  0  0  0  0  0  0  0  0
  -24.5846   18.9138  -31.2901 C   0  0  0  0  0  0  0  0  0  0  0  0
  -23.7373   20.0495  -31.8168 C   0  0  0  0  0  0  0  0  0  0  0  0
  -22.5902   19.5305  -32.6581 C   0  0  0  0  0  0  0  0  0  0  0  0
  -21.8172   20.6579  -33.3016 C   0  0  0  0  0  0  0  0  0  0  0  0
  -20.6832   20.0900  -34.1557 C   0  0  0  0  0  0  0  0  0  0  0  0
  -19.9837   21.2111  -34.8502 C   0  0  0  0  0  0  0  0  0  0  0  0
  -20.2886   21.4287  -36.2805 C   0  0  0  0  0  0  0  0  0  0  0  0
  -19.2976   22.2222  -37.0578 C   0  0  0  0  0  0  0  0  0  0  0  0
  -19.5712   22.4690  -38.4620 C   0  0  0  0  0  0  0  0  0  0  0  0
  -19.5289   23.6530  -38.9210 O   0  0  0  0  0  0  0  0  0  0  0  0
  -19.8792   21.4042  -39.3031 O   0  0  0  0  0  0  0  0  0  0  0  0
  -29.1997   17.6443  -28.3397 C   0  0  0  0  0  0  0  0  0  0  0  0
  -30.3682   17.6497  -27.3856 C   0  0  2  0  0  0  0  0  0  0  0  0
  -29.9595   17.0643  -26.2078 O   0  0  0  0  0  0  0  0  0  0  0  0
  -30.9105   17.0112  -25.2149 C   0  0  0  0  0  0  0  0  0  0  0  0
  -32.3135   17.0357  -25.7584 C   0  0  2  0  0  0  0  0  0  0  0  0
  -33.3334   16.5715  -24.7610 C   0  0  0  0  0  0  0  0  0  0  0  0
  -33.1066   15.1378  -24.3355 C   0  0  2  0  0  0  0  0  0  0  0  0
  -32.3991   15.1843  -23.0278 O   0  0  0  0  0  0  0  0  0  0  0  0
  -31.7822   14.6272  -24.2013 C   0  0  1  0  0  0  0  0  0  0  0  0
  -31.4476   13.1849  -24.0368 C   0  0  1  0  0  0  0  0  0  0  0  0
  -32.6718   12.3487  -24.4315 C   0  0  0  0  0  0  0  0  0  0  0  0
  -30.2527   12.7546  -24.8950 C   0  0  2  0  0  0  0  0  0  0  0  0
  -29.5307   11.6164  -24.2021 C   0  0  0  0  0  0  0  0  0  0  0  0
  -29.3502   13.8061  -24.9884 O   0  0  0  0  0  0  0  0  0  0  0  0
  -32.3064   16.1920  -27.0129 C   0  0  1  0  0  0  0  0  0  0  0  0
  -33.5922   15.9333  -27.4895 O   0  0  0  0  0  0  0  0  0  0  0  0
  -31.5262   16.9527  -28.0605 C   0  0  1  0  0  0  0  0  0  0  0  0
  -32.4201   17.9157  -28.5849 O   0  0  0  0  0  0  0  0  0  0  0  0
  1  2  1  0
  2  3  2  0
  3  4  1  0
  4  5  2  0
  4  6  1  0
  6  7  1  0
  7  8  1  0
  8  9  1  0
  9 10  1  0
 10 11  1  0
 11 12  1  0
 12 13  1  0
 13 14  1  0
 14 15  1  0
 15 16  2  0
 15 17  1  0
  2 18  1  0
 19 18  1  6
 19 20  1  0
 20 21  1  0
 21 22  1  0
 22 23  1  1
 24 23  1  6
 24 25  1  0
 26 25  1  1
 26 27  1  0
 27 28  1  6
 27 29  1  0
 29 30  1  1
 29 31  1  0
 22 32  1  0
 32 33  1  6
 32 34  1  0
 34 35  1  1
 34 19  1  0
 26 24  1  0
M  END
$$$$
