
     RDKit          3D

 42 45  0  0  0  0  0  0  0  0999 V2000
    3.2451   15.0630  -19.1425 C   0  0  0  0  0  0  0  0  0  0  0  0
    3.7241   15.5799  -17.9386 O   0  0  0  0  0  0  0  0  0  0  0  0
    3.7444   16.9370  -17.6146 C   0  0  0  0  0  0  0  0  0  0  0  0
    4.3280   17.8782  -18.4346 C   0  0  0  0  0  0  0  0  0  0  0  0
    4.3365   19.2197  -18.0922 C   0  0  0  0  0  0  0  0  0  0  0  0
    3.7622   19.6763  -16.9155 C   0  0  0  0  0  0  0  0  0  0  0  0
    3.7796   21.0985  -16.5940 C   0  0  0  0  0  0  0  0  0  0  0  0
    3.0920   21.5828  -15.4866 C   0  0  0  0  0  0  0  0  0  0  0  0
    3.0937   22.9261  -15.1782 C   0  0  0  0  0  0  0  0  0  0  0  0
    3.7774   23.8526  -15.9535 C   0  0  0  0  0  0  0  0  0  0  0  0
    4.4659   23.3963  -17.0563 C   0  0  0  0  0  0  0  0  0  0  0  0
    5.1936   24.3316  -17.9067 C   0  0  0  0  0  0  0  0  0  0  0  0
    4.6850   24.6161  -19.0214 O   0  0  0  0  0  0  0  0  0  0  0  0
    6.4082   24.8999  -17.5179 N   0  0  0  0  0  0  0  0  0  0  0  0
    7.3194   25.4259  -18.5144 C   0  0  0  0  0  0  0  0  0  0  0  0
    6.8069   24.9885  -16.1289 C   0  0  0  0  0  0  0  0  0  0  0  0
    4.4499   22.0309  -17.3491 C   0  0  0  0  0  0  0  0  0  0  0  0
    3.1840   18.7211  -16.1078 C   0  0  0  0  0  0  0  0  0  0  0  0
    3.1687   17.3669  -16.4427 C   0  0  0  0  0  0  0  0  0  0  0  0
    2.4069   16.1972  -15.4159 S   0  0  0  0  0  6  0  0  0  0  0  0
    3.4725   15.2719  -14.8474 O   0  0  0  0  0  0  0  0  0  0  0  0
    1.8098   16.8795  -14.1926 O   0  0  0  0  0  0  0  0  0  0  0  0
    1.2712   15.2463  -16.2270 N   0  0  0  0  0  0  0  0  0  0  0  0
    0.2124   15.7509  -17.0206 C   0  0  0  0  0  0  0  0  0  0  0  0
   -0.6485   16.7065  -16.5364 C   0  0  0  0  0  0  0  0  0  0  0  0
   -1.6605   17.1873  -17.3388 C   0  0  0  0  0  0  0  0  0  0  0  0
   -1.8239   16.7242  -18.6234 C   0  0  0  0  0  0  0  0  0  0  0  0
   -0.9700   15.7645  -19.1286 C   0  0  0  0  0  0  0  0  0  0  0  0
   -1.1216   15.2753  -20.4787 N   0  0  0  0  0  0  0  0  0  0  0  0
   -1.9119   15.9746  -21.4291 C   0  0  0  0  0  0  0  0  0  0  0  0
   -1.4696   17.3221  -21.8692 C   0  0  0  0  0  0  0  0  0  0  0  0
   -0.3076   17.3156  -22.6875 N   0  0  0  0  0  0  0  0  0  0  0  0
    0.3770   18.2972  -23.3813 C   0  0  0  0  0  0  0  0  0  0  0  0
    0.2869   18.3124  -24.6314 O   0  0  0  0  0  0  0  0  0  0  0  0
    1.2113   19.3383  -22.7670 C   0  0  0  0  0  0  0  0  0  0  0  0
    0.7013   20.6061  -22.6281 C   0  0  0  0  0  0  0  0  0  0  0  0
    1.4483   21.6324  -22.0544 C   0  0  0  0  0  0  0  0  0  0  0  0
    2.7240   21.3344  -21.6276 C   0  0  0  0  0  0  0  0  0  0  0  0
    3.2195   20.0788  -21.7693 C   0  0  0  0  0  0  0  0  0  0  0  0
    4.6166   19.7941  -21.2923 C   0  0  0  0  0  0  0  0  0  0  0  0
    2.4740   19.0361  -22.3468 C   0  0  0  0  0  0  0  0  0  0  0  0
    0.0278   15.2932  -18.3298 C   0  0  0  0  0  0  0  0  0  0  0  0
  1  2  1  0
  2  3  1  0
  3  4  2  0
  4  5  1  0
  5  6  2  0
  6  7  1  0
  7  8  2  0
  8  9  1  0
  9 10  2  0
 10 11  1  0
 11 12  1  0
 12 13  2  0
 12 14  1  0
 14 15  1  0
 14 16  1  0
 11 17  2  0
  6 18  1  0
 18 19  2  0
 19 20  1  0
 20 21  2  0
 20 22  2  0
 20 23  1  0
 23 24  1  0
 24 25  2  0
 25 26  1  0
 26 27  2  0
 27 28  1  0
 28 29  1  0
 29 30  1  0
 30 31  1  0
 31 32  1  0
 32 33  1  0
 33 34  2  0
 33 35  1  0
 35 36  2  0
 36 37  1  0
 37 38  2  0
 38 39  1  0
 39 40  1  0
 39 41  2  0
 28 42  2  0
 19  3  1  0
 42 24  1  0
 17  7  1  0
 41 35  1  0
M  END
$$$$
