
     RDKit          3D

 35 40  0  0  0  0  0  0  0  0999 V2000
  -11.1759   44.5414  -19.1498 C   0  0  0  0  0  0  0  0  0  0  0  0
  -12.8126   44.6927  -18.4755 S   0  0  0  0  0  6  0  0  0  0  0  0
  -13.1268   46.1597  -18.3479 O   0  0  0  0  0  0  0  0  0  0  0  0
  -12.8944   43.9985  -17.1457 O   0  0  0  0  0  0  0  0  0  0  0  0
  -13.9162   44.0287  -19.6125 N   0  0  0  0  0  0  0  0  0  0  0  0
  -14.4461   42.7614  -19.2186 C   0  0  0  0  0  0  0  0  0  0  0  0
  -15.1287   42.1553  -20.4258 C   0  0  0  0  0  0  0  0  0  0  0  0
  -16.1430   43.0197  -20.9728 N   0  0  0  0  0  0  0  0  0  0  0  0
  -17.4463   42.7724  -20.4604 C   0  0  0  0  0  0  0  0  0  0  0  0
  -17.9908   41.5322  -20.9338 C   0  0  0  0  0  0  0  0  0  0  0  0
  -18.2287   40.3152  -20.4384 C   0  0  0  0  0  0  0  0  0  0  0  0
  -18.7750   39.3441  -21.1578 C   0  0  0  0  0  0  0  0  0  0  0  0
  -19.0827   38.0481  -20.7974 N   0  0  0  0  0  0  0  0  0  0  0  0
  -19.6253   37.1621  -21.5896 C   0  0  0  0  0  0  0  0  0  0  0  0
  -19.9148   35.8058  -21.1057 C   0  0  0  0  0  0  0  0  0  0  0  0
  -20.1969   35.5934  -19.7885 C   0  0  0  0  0  0  0  0  0  0  0  0
  -20.4724   34.3256  -19.3075 C   0  0  0  0  0  0  0  0  0  0  0  0
  -20.4651   33.2483  -20.1642 C   0  0  0  0  0  0  0  0  0  0  0  0
  -20.1799   33.4666  -21.4939 C   0  0  0  0  0  0  0  0  0  0  0  0
  -20.1044   32.6276  -22.5269 N   0  0  0  0  0  0  0  0  0  0  0  0
  -19.8028   33.2691  -23.6199 N   0  0  0  0  0  0  0  0  0  0  0  0
  -19.6715   34.5884  -23.3060 C   0  0  0  0  0  0  0  0  0  0  0  0
  -19.9050   34.7372  -21.9695 C   0  0  0  0  0  0  0  0  0  0  0  0
  -19.9483   37.4240  -22.8663 N   0  0  0  0  0  0  0  0  0  0  0  0
  -19.6920   38.6670  -23.3333 C   0  0  0  0  0  0  0  0  0  0  0  0
  -19.9990   39.0420  -24.6760 N   0  0  0  0  0  0  0  0  0  0  0  0
  -19.5976   40.3113  -25.2193 C   0  0  0  0  0  0  0  0  0  0  0  0
  -19.2231   40.2029  -26.6691 C   0  0  0  0  0  0  0  0  0  0  0  0
  -19.2400   38.8714  -27.1137 O   0  0  0  0  0  0  0  0  0  0  0  0
  -20.5364   38.3661  -26.9638 C   0  0  0  0  0  0  0  0  0  0  0  0
  -20.7345   38.0999  -25.4869 C   0  0  0  0  0  0  0  0  0  0  0  0
  -19.1084   39.6110  -22.4720 C   0  0  0  0  0  0  0  0  0  0  0  0
  -18.6243   41.2964  -22.6746 S   0  0  0  0  0  0  0  0  0  0  0  0
  -15.7467   44.3845  -21.0872 C   0  0  0  0  0  0  0  0  0  0  0  0
  -15.0344   44.9139  -19.8696 C   0  0  0  0  0  0  0  0  0  0  0  0
  1  2  1  0
  2  3  2  0
  2  4  2  0
  2  5  1  0
  5  6  1  0
  6  7  1  0
  7  8  1  0
  8  9  1  0
  9 10  1  0
 10 11  2  0
 11 12  1  0
 12 13  2  0
 13 14  1  0
 14 15  1  0
 15 16  2  0
 16 17  1  0
 17 18  2  0
 18 19  1  0
 19 20  1  0
 20 21  1  0
 21 22  2  0
 22 23  1  0
 14 24  2  0
 24 25  1  0
 25 26  1  0
 26 27  1  0
 27 28  1  0
 28 29  1  0
 29 30  1  0
 30 31  1  0
 25 32  2  0
 32 33  1  0
  8 34  1  0
 34 35  1  0
 35  5  1  0
 33 10  1  0
 32 12  1  0
 23 15  1  0
 31 26  1  0
 23 19  2  0
M  END
$$$$
