
     RDKit          3D

 25 26  0  0  0  0  0  0  0  0999 V2000
  -20.6136   21.7830  -30.9198 C   0  0  0  0  0  0  0  0  0  0  0  0
  -20.2586   21.7499  -32.3759 C   0  0  0  0  0  0  0  0  0  0  0  0
  -19.2107   20.8364  -32.6208 O   0  0  0  0  0  0  0  0  0  0  0  0
  -18.8351   20.5325  -33.8990 C   0  0  0  0  0  0  0  0  0  0  0  0
  -18.3949   21.4618  -34.6543 O   0  0  0  0  0  0  0  0  0  0  0  0
  -18.9010   19.2014  -34.4739 C   0  0  0  0  0  0  0  0  0  0  0  0
  -19.6846   18.3016  -33.9551 C   0  0  0  0  0  0  0  0  0  0  0  0
  -20.5300   18.5609  -32.7359 C   0  0  0  0  0  0  0  0  0  0  0  0
  -19.9791   17.1211  -34.7130 N   0  0  0  0  0  0  0  0  0  0  0  0
  -19.3872   17.0094  -36.0048 C   0  0  0  0  0  0  0  0  0  0  0  0
  -19.7606   15.7783  -36.8017 C   0  0  0  0  0  0  0  0  0  0  0  0
  -18.5592   17.8914  -36.5241 C   0  0  0  0  0  0  0  0  0  0  0  0
  -18.0699   17.7220  -37.8716 C   0  0  0  0  0  0  0  0  0  0  0  0
  -18.3573   16.7953  -38.6666 O   0  0  0  0  0  0  0  0  0  0  0  0
  -17.1793   18.6856  -38.4105 O   0  0  0  0  0  0  0  0  0  0  0  0
  -16.0364   18.3018  -39.1521 C   0  0  0  0  0  0  0  0  0  0  0  0
  -17.8941   18.7968  -35.5647 C   0  0  0  0  0  0  0  0  0  0  0  0
  -16.7483   18.2155  -34.7881 C   0  0  0  0  0  0  0  0  0  0  0  0
  -17.0372   17.9067  -33.4377 C   0  0  0  0  0  0  0  0  0  0  0  0
  -16.0934   17.3825  -32.5569 C   0  0  0  0  0  0  0  0  0  0  0  0
  -14.8215   17.1493  -33.0071 C   0  0  0  0  0  0  0  0  0  0  0  0
  -14.5108   17.4310  -34.2905 C   0  0  0  0  0  0  0  0  0  0  0  0
  -12.9092   17.1692  -34.9668 Cl  0  0  0  0  0  0  0  0  0  0  0  0
  -15.5019   17.9686  -35.1712 C   0  0  0  0  0  0  0  0  0  0  0  0
  -14.9819   18.2473  -36.8000 Cl  0  0  0  0  0  0  0  0  0  0  0  0
  1  2  1  0
  2  3  1  0
  3  4  1  0
  4  5  2  0
  4  6  1  0
  6  7  2  0
  7  8  1  0
  7  9  1  0
  9 10  1  0
 10 11  1  0
 10 12  2  0
 12 13  1  0
 13 14  2  0
 13 15  1  0
 15 16  1  0
 12 17  1  0
 17 18  1  0
 18 19  2  0
 19 20  1  0
 20 21  2  0
 21 22  1  0
 22 23  1  0
 22 24  2  0
 24 25  1  0
 17  6  1  0
 24 18  1  0
M  END
$$$$
