
     RDKit          3D

 20 22  0  0  0  0  0  0  0  0999 V2000
  -17.2504   35.9656  -21.3039 O   0  0  0  0  0  0  0  0  0  0  0  0
  -17.9854   36.5440  -22.4937 S   0  0  0  0  0  6  0  0  0  0  0  0
  -17.1267   36.2337  -23.6870 O   0  0  0  0  0  0  0  0  0  0  0  0
  -19.5734   35.8106  -22.6009 C   0  0  0  0  0  0  0  0  0  0  0  0
  -19.8167   34.6727  -21.6492 C   0  0  0  0  0  0  0  0  0  0  0  0
  -19.1848   33.3553  -22.0342 C   0  0  0  0  0  0  0  0  0  0  0  0
  -20.9870   33.4249  -21.9240 S   0  0  0  0  0  0  0  0  0  0  0  0
  -18.1614   38.2528  -22.2574 C   0  0  0  0  0  0  0  0  0  0  0  0
  -18.9041   39.0099  -23.1195 C   0  0  0  0  0  0  0  0  0  0  0  0
  -19.0495   40.3741  -22.9379 C   0  0  0  0  0  0  0  0  0  0  0  0
  -18.4336   40.9708  -21.8701 C   0  0  0  0  0  0  0  0  0  0  0  0
  -18.6137   42.3452  -21.7360 O   0  0  0  0  0  0  0  0  0  0  0  0
  -18.6363   43.2020  -22.8286 C   0  0  0  0  0  0  0  0  0  0  0  0
  -17.5736   43.2508  -23.7140 C   0  0  0  0  0  0  0  0  0  0  0  0
  -17.5742   44.0942  -24.8065 C   0  0  0  0  0  0  0  0  0  0  0  0
  -18.6389   44.9311  -25.0671 C   0  0  0  0  0  0  0  0  0  0  0  0
  -19.7042   44.8919  -24.1921 C   0  0  0  0  0  0  0  0  0  0  0  0
  -19.7008   44.0402  -23.0912 C   0  0  0  0  0  0  0  0  0  0  0  0
  -17.6886   40.2284  -21.0004 C   0  0  0  0  0  0  0  0  0  0  0  0
  -17.5561   38.8722  -21.1984 C   0  0  0  0  0  0  0  0  0  0  0  0
  1  2  2  0
  2  3  2  0
  2  4  1  0
  4  5  1  0
  5  6  1  0
  6  7  1  0
  2  8  1  0
  8  9  2  0
  9 10  1  0
 10 11  2  0
 11 12  1  0
 12 13  1  0
 13 14  2  0
 14 15  1  0
 15 16  2  0
 16 17  1  0
 17 18  2  0
 11 19  1  0
 19 20  2  0
  7  5  1  0
 20  8  1  0
 18 13  1  0
M  END
$$$$
