
     RDKit          3D

 34 38  0  0  0  0  0  0  0  0999 V2000
  -46.0513   13.8207  -38.9773 C   0  0  0  0  0  0  0  0  0  0  0  0
  -44.6692   13.4993  -38.3791 C   0  0  0  0  0  0  0  0  0  0  0  0
  -44.7631   13.8766  -36.9177 C   0  0  0  0  0  0  0  0  0  0  0  0
  -43.6970   14.3315  -39.1411 C   0  0  0  0  0  0  0  0  0  0  0  0
  -42.2888   13.8688  -39.1774 C   0  0  0  0  0  0  0  0  0  0  0  0
  -42.1303   12.3598  -39.2461 C   0  0  2  0  0  0  0  0  0  0  0  0
  -41.8459   11.9208  -37.8554 C   0  0  0  0  0  0  0  0  0  0  0  0
  -40.9821   12.5123  -37.1212 O   0  0  0  0  0  0  0  0  0  0  0  0
  -42.4753   10.8515  -37.2320 O   0  0  0  0  0  0  0  0  0  0  0  0
  -41.0280   11.8984  -40.1287 C   0  0  0  0  0  0  0  0  0  0  0  0
  -41.4362   11.3746  -41.4784 C   0  0  0  0  0  0  0  0  0  0  0  0
  -42.5747   10.4043  -41.4689 C   0  0  2  0  0  0  0  0  0  0  0  0
  -43.5636   10.8445  -42.5228 C   0  0  0  0  0  0  0  0  0  0  0  0
  -43.2913   10.4561  -40.1509 C   0  0  0  0  0  0  0  0  0  0  0  0
  -43.7207    9.4082  -39.4750 C   0  0  0  0  0  0  0  0  0  0  0  0
  -43.5412    7.9925  -39.9536 C   0  0  0  0  0  0  0  0  0  0  0  0
  -43.4117    8.1473  -41.4765 C   0  0  2  0  0  0  0  0  0  0  0  0
  -43.5587    6.9010  -42.2397 C   0  0  1  0  0  0  0  0  0  0  0  0
  -44.2639    5.9066  -41.3111 C   0  0  0  0  0  0  0  0  0  0  0  0
  -44.5424    7.1036  -43.3820 C   0  0  0  0  0  0  0  0  0  0  0  0
  -44.8247    5.8841  -44.1734 C   0  0  0  0  0  0  0  0  0  0  0  0
  -43.7010    4.9732  -44.4467 C   0  0  2  0  0  0  0  0  0  0  0  0
  -44.1385    3.6270  -44.4145 O   0  0  0  0  0  0  0  0  0  0  0  0
  -42.4752    5.0758  -43.6017 C   0  0  1  0  0  0  0  0  0  0  0  0
  -42.4277    3.8659  -42.6298 C   0  0  0  0  0  0  0  0  0  0  0  0
  -41.2797    4.8314  -44.5078 C   0  0  0  0  0  0  0  0  0  0  0  0
  -41.3310    5.4472  -45.7256 O   0  0  0  0  0  0  0  0  0  0  0  0
  -42.2901    6.3455  -42.8287 C   0  0  0  0  0  0  0  0  0  0  0  0
  -41.6145    7.4030  -43.6120 C   0  0  0  0  0  0  0  0  0  0  0  0
  -41.5495    8.7625  -43.0200 C   0  0  0  0  0  0  0  0  0  0  0  0
  -42.1513    8.9391  -41.6718 C   0  0  1  0  0  0  0  0  0  0  0  0
  -41.0812    8.6810  -40.6505 C   0  0  0  0  0  0  0  0  0  0  0  0
  -43.4889   11.8228  -39.6403 C   0  0  1  0  0  0  0  0  0  0  0  0
  -44.4532   12.0001  -38.5329 C   0  0  0  0  0  0  0  0  0  0  0  0
  1  2  1  0
  2  3  1  0
  2  4  1  0
  4  5  1  0
  5  6  1  0
  6  7  1  1
  7  8  2  0
  7  9  1  0
  6 10  1  0
 10 11  1  0
 11 12  1  0
 12 13  1  6
 12 14  1  0
 14 15  2  0
 15 16  1  0
 17 16  1  1
 17 18  1  0
 18 19  1  1
 18 20  1  0
 20 21  1  0
 21 22  1  0
 22 23  1  1
 22 24  1  0
 24 25  1  1
 24 26  1  0
 26 27  1  0
 24 28  1  0
 28 29  1  0
 29 30  1  0
 30 31  1  0
 31 32  1  1
 14 33  1  0
 33 34  1  1
 34  2  1  0
 33  6  1  0
 31 12  1  0
 31 17  1  0
 28 18  1  0
M  END
$$$$
