
     RDKit          3D

 13 13  0  0  0  0  0  0  0  0999 V2000
  -17.9549   41.4939  -21.7356 Cl  0  0  0  0  0  0  0  0  0  0  0  0
  -18.1206   38.9749  -21.5753 N   0  0  0  0  0  0  0  0  0  0  0  0
  -18.5969   40.1136  -20.8799 N   0  0  0  0  0  0  0  0  0  0  0  0
  -17.7509   41.2417  -20.8439 C   0  0  0  0  0  0  0  0  0  0  0  0
  -16.7600   41.3760  -19.9181 N   0  0  0  0  0  0  0  0  0  0  0  0
  -15.9698   42.4321  -19.9121 N   0  0  0  0  0  0  0  0  0  0  0  0
  -16.1246   43.4150  -20.8307 C   0  0  0  0  0  0  0  0  0  0  0  0
  -17.1017   43.3441  -21.7936 C   0  0  0  0  0  0  0  0  0  0  0  0
  -17.2868   44.3419  -22.7493 C   0  0  0  0  0  0  0  0  0  0  0  0
  -18.2866   44.2359  -23.6992 C   0  0  0  0  0  0  0  0  0  0  0  0
  -19.1154   43.1356  -23.7112 C   0  0  0  0  0  0  0  0  0  0  0  0
  -18.9184   42.1492  -22.7522 C   0  0  0  0  0  0  0  0  0  0  0  0
  -17.9336   42.2351  -21.8024 C   0  0  0  0  0  0  0  0  0  0  0  0
  2  3  1  0
  3  4  1  0
  4  5  2  0
  5  6  1  0
  6  7  2  0
  7  8  1  0
  8  9  2  0
  9 10  1  0
 10 11  2  0
 11 12  1  0
 12 13  2  0
 13  4  1  0
 13  8  1  0
M  END
$$$$
