
     RDKit          3D

 27 30  0  0  0  0  0  0  0  0999 V2000
  -43.7747   11.1301  -33.5800 C   0  0  0  0  0  0  0  0  0  0  0  0
  -44.0821   10.7732  -35.0171 C   0  0  0  0  0  0  0  0  0  0  0  0
  -45.4978   10.2746  -35.0701 C   0  0  0  0  0  0  0  0  0  0  0  0
  -43.1731    9.6391  -35.4327 C   0  0  0  0  0  0  0  0  0  0  0  0
  -43.8702   11.9605  -35.8219 N   0  0  0  0  0  0  0  0  0  0  0  0
  -42.9847   11.9968  -36.9253 C   0  0  0  0  0  0  0  0  0  0  0  0
  -41.7644   12.2388  -36.6193 O   0  0  0  0  0  0  0  0  0  0  0  0
  -43.3379   11.7902  -38.3043 C   0  0  1  0  0  0  0  0  0  0  0  0
  -43.5705   13.0318  -39.1346 C   0  0  0  0  0  0  0  0  0  0  0  0
  -43.3924   12.5749  -40.5904 C   0  0  0  0  0  0  0  0  0  0  0  0
  -43.1866   11.1110  -40.4879 C   0  0  1  0  0  0  0  0  0  0  0  0
  -42.4958   10.4518  -41.6186 C   0  0  2  0  0  0  0  0  0  0  0  0
  -43.3417   10.6073  -42.8450 C   0  0  0  0  0  0  0  0  0  0  0  0
  -42.5877    9.9060  -43.9686 C   0  0  0  0  0  0  0  0  0  0  0  0
  -42.5709    8.4276  -43.6329 C   0  0  1  0  0  0  0  0  0  0  0  0
  -42.0472    7.6306  -44.6958 N   0  0  0  0  0  0  0  0  0  0  0  0
  -42.0841    6.2013  -44.4500 C   0  0  0  0  0  0  0  0  0  0  0  0
  -42.2050    5.3811  -45.3750 O   0  0  0  0  0  0  0  0  0  0  0  0
  -41.9653    5.8375  -43.0362 C   0  0  0  0  0  0  0  0  0  0  0  0
  -41.8290    6.7251  -42.0617 C   0  0  0  0  0  0  0  0  0  0  0  0
  -41.7842    8.1582  -42.3714 C   0  0  1  0  0  0  0  0  0  0  0  0
  -40.3189    8.5301  -42.5631 C   0  0  0  0  0  0  0  0  0  0  0  0
  -42.4216    8.9569  -41.2773 C   0  0  1  0  0  0  0  0  0  0  0  0
  -41.6710    8.8030  -39.9730 C   0  0  0  0  0  0  0  0  0  0  0  0
  -42.3262    9.5556  -38.8391 C   0  0  0  0  0  0  0  0  0  0  0  0
  -42.4046   11.0016  -39.1654 C   0  0  2  0  0  0  0  0  0  0  0  0
  -41.0343   11.5817  -39.2966 C   0  0  0  0  0  0  0  0  0  0  0  0
  1  2  1  0
  2  3  1  0
  2  4  1  0
  2  5  1  0
  5  6  1  0
  6  7  2  0
  8  6  1  1
  8  9  1  0
  9 10  1  0
 11 10  1  6
 11 12  1  0
 12 13  1  6
 13 14  1  0
 15 14  1  6
 15 16  1  0
 16 17  1  0
 17 18  2  0
 17 19  1  0
 19 20  2  0
 20 21  1  0
 21 22  1  6
 21 23  1  0
 23 24  1  1
 24 25  1  0
 25 26  1  0
 26 27  1  6
 26  8  1  0
 26 11  1  0
 23 12  1  0
 21 15  1  0
M  END
$$$$
