
     RDKit          3D

 17 18  0  0  0  0  0  0  0  0999 V2000
  -15.6112    1.9426  -30.9162 C   0  0  0  0  0  0  0  0  0  0  0  0
  -15.5405    1.1378  -32.1888 C   0  0  0  0  0  0  0  0  0  0  0  0
  -14.6688   -0.0584  -32.0252 N   0  0  0  0  0  0  0  0  0  0  0  0
  -13.3213    0.0025  -32.4487 C   0  0  0  0  0  0  0  0  0  0  0  0
  -12.6662    0.9554  -33.0787 C   0  0  0  0  0  0  0  0  0  0  0  0
  -11.2797    0.7244  -33.4118 C   0  0  0  0  0  0  0  0  0  0  0  0
  -10.5413    1.7593  -34.1732 C   0  0  0  0  0  0  0  0  0  0  0  0
  -10.6640   -0.3211  -33.0862 O   0  0  0  0  0  0  0  0  0  0  0  0
  -12.6236   -1.5837  -31.9624 S   0  0  0  0  0  0  0  0  0  0  0  0
  -14.1562   -2.2576  -31.3740 C   0  0  0  0  0  0  0  0  0  0  0  0
  -14.4227   -3.4981  -30.8892 C   0  0  0  0  0  0  0  0  0  0  0  0
  -15.6850   -3.8031  -30.4552 C   0  0  0  0  0  0  0  0  0  0  0  0
  -16.6632   -2.8464  -30.5181 C   0  0  0  0  0  0  0  0  0  0  0  0
  -17.9358   -3.1920  -30.0684 O   0  0  0  0  0  0  0  0  0  0  0  0
  -19.0616   -2.9539  -30.8644 C   0  0  0  0  0  0  0  0  0  0  0  0
  -16.3656   -1.6113  -31.0088 C   0  0  0  0  0  0  0  0  0  0  0  0
  -15.0810   -1.2664  -31.4637 C   0  0  0  0  0  0  0  0  0  0  0  0
  1  2  1  0
  2  3  1  0
  3  4  1  0
  4  5  2  0
  5  6  1  0
  6  7  1  0
  6  8  2  0
  4  9  1  0
  9 10  1  0
 10 11  2  0
 11 12  1  0
 12 13  2  0
 13 14  1  0
 14 15  1  0
 13 16  1  0
 16 17  2  0
 17  3  1  0
 17 10  1  0
M  END
$$$$
