
     RDKit          3D

 30 30  0  0  0  0  0  0  0  0999 V2000
  -27.4339   17.5894  -24.0652 C   0  0  0  0  0  0  0  0  0  0  0  0
  -26.9999   16.1807  -24.3933 C   0  0  0  0  0  0  0  0  0  0  0  0
  -25.7235   16.1632  -25.2272 C   0  0  0  0  0  0  0  0  0  0  0  0
  -26.0270   16.5637  -26.6439 C   0  0  0  0  0  0  0  0  0  0  0  0
  -26.4679   18.0087  -26.7826 C   0  0  0  0  0  0  0  0  0  0  0  0
  -26.4844   18.4538  -28.1369 N   0  0  0  0  0  0  0  0  0  0  0  0
  -25.2214   18.1640  -28.8784 C   0  0  0  0  0  0  0  0  0  0  0  0
  -25.5875   17.4759  -30.1466 C   0  0  0  0  0  0  0  0  0  0  0  0
  -24.4102   17.0648  -30.9746 C   0  0  0  0  0  0  0  0  0  0  0  0
  -24.7524   16.3760  -32.1178 O   0  0  0  0  0  0  0  0  0  0  0  0
  -23.5849   16.0429  -32.8044 C   0  0  0  0  0  0  0  0  0  0  0  0
  -27.4872   19.1076  -28.8526 C   0  0  0  0  0  0  0  0  0  0  0  0
  -27.0735   19.7980  -29.8784 O   0  0  0  0  0  0  0  0  0  0  0  0
  -28.9300   19.0961  -28.5734 C   0  0  0  0  0  0  0  0  0  0  0  0
  -29.6408   19.8605  -29.6834 C   0  0  0  0  0  0  0  0  0  0  0  0
  -29.2071   21.2808  -29.8264 C   0  0  0  0  0  0  0  0  0  0  0  0
  -29.4775   22.1499  -28.6772 C   0  0  0  0  0  0  0  0  0  0  0  0
  -29.2296   23.3763  -28.7984 O   0  0  0  0  0  0  0  0  0  0  0  0
  -29.9850   21.7059  -27.4735 O   0  0  0  0  0  0  0  0  0  0  0  0
  -29.4323   17.7385  -28.4860 N   0  0  0  0  0  0  0  0  0  0  0  0
  -29.6765   16.9702  -27.3512 C   0  0  0  0  0  0  0  0  0  0  0  0
  -29.4865   17.4806  -26.2097 O   0  0  0  0  0  0  0  0  0  0  0  0
  -30.1518   15.5719  -27.4283 C   0  0  0  0  0  0  0  0  0  0  0  0
  -30.4832   14.9344  -26.2362 C   0  0  0  0  0  0  0  0  0  0  0  0
  -30.9352   13.6298  -26.2035 C   0  0  0  0  0  0  0  0  0  0  0  0
  -31.0698   12.9184  -27.3756 C   0  0  0  0  0  0  0  0  0  0  0  0
  -31.6432   11.2649  -27.3266 Cl  0  0  0  0  0  0  0  0  0  0  0  0
  -30.7407   13.5539  -28.5502 C   0  0  0  0  0  0  0  0  0  0  0  0
  -30.9041   12.6644  -30.0623 Cl  0  0  0  0  0  0  0  0  0  0  0  0
  -30.2837   14.8714  -28.5896 C   0  0  0  0  0  0  0  0  0  0  0  0
  1  2  1  0
  2  3  1  0
  3  4  1  0
  4  5  1  0
  5  6  1  0
  6  7  1  0
  7  8  1  0
  8  9  1  0
  9 10  1  0
 10 11  1  0
  6 12  1  0
 12 13  2  0
 12 14  1  0
 14 15  1  0
 15 16  1  0
 16 17  1  0
 17 18  2  0
 17 19  1  0
 14 20  1  0
 20 21  1  0
 21 22  2  0
 21 23  1  0
 23 24  2  0
 24 25  1  0
 25 26  2  0
 26 27  1  0
 26 28  1  0
 28 29  1  0
 28 30  2  0
 30 23  1  0
M  END
$$$$
