
     RDKit          3D

 14 15  0  0  0  0  0  0  0  0999 V2000
  -33.8748   15.0790  -27.6297 O   0  0  0  0  0  0  0  0  0  0  0  0
  -33.2571   16.1708  -27.9282 C   0  0  0  0  0  0  0  0  0  0  0  0
  -33.8473   16.9424  -28.9019 O   0  0  0  0  0  0  0  0  0  0  0  0
  -32.0371   16.4790  -27.2357 C   0  0  0  0  0  0  0  0  0  0  0  0
  -31.4042   17.6953  -27.5246 C   0  0  0  0  0  0  0  0  0  0  0  0
  -30.2300   18.0947  -26.9212 C   0  0  0  0  0  0  0  0  0  0  0  0
  -29.6352   17.2846  -25.9944 C   0  0  0  0  0  0  0  0  0  0  0  0
  -28.4609   17.6601  -25.3762 O   0  0  0  0  0  0  0  0  0  0  0  0
  -30.2475   16.0798  -25.6977 C   0  0  0  0  0  0  0  0  0  0  0  0
  -29.6346   15.3071  -24.7808 N   0  0  0  0  0  0  0  0  0  0  0  0
  -30.1472   14.1216  -24.4240 C   0  0  0  0  0  0  0  0  0  0  0  0
  -31.3139   13.7104  -25.0147 C   0  0  0  0  0  0  0  0  0  0  0  0
  -31.9874   14.4626  -25.9629 C   0  0  0  0  0  0  0  0  0  0  0  0
  -31.4463   15.6779  -26.3174 C   0  0  0  0  0  0  0  0  0  0  0  0
  1  2  2  0
  2  3  1  0
  2  4  1  0
  4  5  2  0
  5  6  1  0
  6  7  2  0
  7  8  1  0
  7  9  1  0
  9 10  2  0
 10 11  1  0
 11 12  2  0
 12 13  1  0
 13 14  2  0
 14  4  1  0
 14  9  1  0
M  END
$$$$
