
     RDKit          3D

 25 28  0  0  0  0  0  0  0  0999 V2000
  -17.0041   43.7816  -20.7421 C   0  0  0  0  0  0  0  0  0  0  0  0
  -17.0576   42.8654  -21.9488 C   0  0  0  0  0  0  0  0  0  0  0  0
  -17.4583   41.5813  -21.5051 O   0  0  0  0  0  0  0  0  0  0  0  0
  -17.6561   40.5169  -22.3732 C   0  0  0  0  0  0  0  0  0  0  0  0
  -17.4842   40.7684  -23.5868 O   0  0  0  0  0  0  0  0  0  0  0  0
  -18.0379   39.1937  -21.9126 C   0  0  0  0  0  0  0  0  0  0  0  0
  -17.7260   38.7660  -20.6518 N   0  0  0  0  0  0  0  0  0  0  0  0
  -18.1700   37.5342  -20.4888 C   0  0  0  0  0  0  0  0  0  0  0  0
  -18.7588   37.1699  -21.6210 N   0  0  0  0  0  0  0  0  0  0  0  0
  -18.7115   38.1591  -22.5485 C   0  0  0  0  0  0  0  0  0  0  0  0
  -19.1627   38.3292  -23.9095 C   0  0  2  0  0  0  0  0  0  0  0  0
  -20.4856   39.0573  -24.0797 C   0  0  0  0  0  0  0  0  0  0  0  0
  -20.6722   38.8858  -25.6004 C   0  0  0  0  0  0  0  0  0  0  0  0
  -19.9155   37.6081  -25.9431 C   0  0  0  0  0  0  0  0  0  0  0  0
  -19.4730   37.1280  -24.6466 N   0  0  0  0  0  0  0  0  0  0  0  0
  -19.4397   35.7578  -24.3225 C   0  0  0  0  0  0  0  0  0  0  0  0
  -19.2483   34.8986  -25.2087 O   0  0  0  0  0  0  0  0  0  0  0  0
  -19.6197   35.2181  -22.9713 C   0  0  0  0  0  0  0  0  0  0  0  0
  -20.1545   33.9439  -22.9963 C   0  0  0  0  0  0  0  0  0  0  0  0
  -20.4248   33.2770  -21.8252 C   0  0  0  0  0  0  0  0  0  0  0  0
  -20.9681   31.9818  -21.8465 O   0  0  0  0  0  0  0  0  0  0  0  0
  -21.4915   31.4215  -23.0327 C   0  0  0  0  0  0  0  0  0  0  0  0
  -20.1465   33.9182  -20.6419 C   0  0  0  0  0  0  0  0  0  0  0  0
  -19.6022   35.2142  -20.6263 C   0  0  0  0  0  0  0  0  0  0  0  0
  -19.3257   35.8925  -21.7949 C   0  0  0  0  0  0  0  0  0  0  0  0
  1  2  1  0
  2  3  1  0
  3  4  1  0
  4  5  2  0
  4  6  1  0
  6  7  1  0
  7  8  2  0
  8  9  1  0
  9 10  1  0
 10 11  1  0
 11 12  1  1
 12 13  1  0
 13 14  1  0
 14 15  1  0
 15 16  1  0
 16 17  2  0
 16 18  1  0
 18 19  2  0
 19 20  1  0
 20 21  1  0
 21 22  1  0
 20 23  2  0
 23 24  1  0
 24 25  2  0
 10  6  2  0
 15 11  1  0
 25 18  1  0
 25  9  1  0
M  END
$$$$
