
     RDKit          3D

 22 24  0  0  0  0  0  0  0  0999 V2000
  -19.1456   44.3255  -25.3893 C   0  0  0  0  0  0  0  0  0  0  0  0
  -18.9988   44.3961  -23.9770 N   0  0  0  0  0  0  0  0  0  0  0  0
  -17.7447   43.9565  -23.4674 C   0  0  1  0  0  0  0  0  0  0  0  0
  -17.9678   44.1911  -21.9648 C   0  0  0  0  0  0  0  0  0  0  0  0
  -19.3809   43.6614  -21.8262 C   0  0  0  0  0  0  0  0  0  0  0  0
  -19.9496   43.6049  -23.2372 C   0  0  2  0  0  0  0  0  0  0  0  0
  -19.9145   42.2100  -23.7818 C   0  0  0  0  0  0  0  0  0  0  0  0
  -18.5493   41.5919  -23.7919 C   0  0  2  0  0  0  0  0  0  0  0  0
  -18.5386   40.5724  -22.8079 O   0  0  0  0  0  0  0  0  0  0  0  0
  -18.4252   39.2276  -23.1052 C   0  0  0  0  0  0  0  0  0  0  0  0
  -18.3278   38.9290  -24.3310 O   0  0  0  0  0  0  0  0  0  0  0  0
  -18.4168   38.1974  -22.0709 C   0  0  0  0  0  0  0  0  0  0  0  0
  -18.5136   38.3835  -20.7255 C   0  0  0  0  0  0  0  0  0  0  0  0
  -18.4697   37.1905  -20.0773 N   0  0  0  0  0  0  0  0  0  0  0  0
  -18.3455   36.2574  -21.0161 C   0  0  0  0  0  0  0  0  0  0  0  0
  -18.2565   34.8826  -20.8868 C   0  0  0  0  0  0  0  0  0  0  0  0
  -18.1319   34.0977  -21.9990 C   0  0  0  0  0  0  0  0  0  0  0  0
  -18.0925   34.6508  -23.2599 C   0  0  0  0  0  0  0  0  0  0  0  0
  -18.1832   36.0204  -23.3566 C   0  0  0  0  0  0  0  0  0  0  0  0
  -18.3089   36.8542  -22.2812 C   0  0  0  0  0  0  0  0  0  0  0  0
  -17.4198   42.5287  -23.6703 C   0  0  0  0  0  0  0  0  0  0  0  0
  -18.4490   39.7707  -22.6609 Cl  0  0  0  0  0  0  0  0  0  0  0  0
  1  2  1  0
  2  3  1  0
  3  4  1  1
  4  5  1  0
  6  5  1  1
  6  7  1  0
  7  8  1  0
  8  9  1  1
  9 10  1  0
 10 11  2  0
 10 12  1  0
 12 13  2  0
 13 14  1  0
 14 15  1  0
 15 16  2  0
 16 17  1  0
 17 18  2  0
 18 19  1  0
 19 20  2  0
  8 21  1  0
  6  2  1  0
 20 12  1  0
 21  3  1  0
 20 15  1  0
M  END
$$$$
