
     RDKit          3D

 29 32  0  0  0  0  0  0  0  0999 V2000
  -19.5455   39.1149  -25.7372 O   0  0  0  0  0  0  0  0  0  0  0  0
  -19.1094   39.8054  -24.7860 C   0  0  0  0  0  0  0  0  0  0  0  0
  -19.3217   39.3007  -23.4582 N   0  0  0  0  0  0  0  0  0  0  0  0
  -18.4998   38.3127  -22.8390 C   0  0  0  0  0  0  0  0  0  0  0  0
  -18.1706   38.7778  -21.4211 C   0  0  1  0  0  0  0  0  0  0  0  0
  -17.1585   39.8945  -21.5720 C   0  0  0  0  0  0  0  0  0  0  0  0
  -17.4620   40.8241  -20.5011 N   0  0  0  0  0  0  0  0  0  0  0  0
  -16.5447   41.8123  -20.0523 C   0  0  0  0  0  0  0  0  0  0  0  0
  -16.9670   43.0724  -19.6846 C   0  0  0  0  0  0  0  0  0  0  0  0
  -16.0838   44.0364  -19.2486 C   0  0  0  0  0  0  0  0  0  0  0  0
  -14.7308   43.7813  -19.1605 C   0  0  0  0  0  0  0  0  0  0  0  0
  -13.8126   44.7906  -18.7050 N   0  0  0  0  0  0  0  0  0  0  0  0
  -12.6904   45.2176  -19.4973 C   0  0  0  0  0  0  0  0  0  0  0  0
  -11.7021   45.9020  -18.5764 C   0  0  0  0  0  0  0  0  0  0  0  0
  -12.3611   46.9975  -17.9917 O   0  0  0  0  0  0  0  0  0  0  0  0
  -13.1462   46.5102  -16.9670 C   0  0  0  0  0  0  0  0  0  0  0  0
  -14.0062   45.3948  -17.4343 C   0  0  0  0  0  0  0  0  0  0  0  0
  -14.9280   44.9686  -16.6977 O   0  0  0  0  0  0  0  0  0  0  0  0
  -14.3098   42.5198  -19.5288 C   0  0  0  0  0  0  0  0  0  0  0  0
  -15.1931   41.5514  -19.9663 C   0  0  0  0  0  0  0  0  0  0  0  0
  -18.7802   40.5235  -20.0596 C   0  0  0  0  0  0  0  0  0  0  0  0
  -19.3823   41.1239  -19.1263 O   0  0  0  0  0  0  0  0  0  0  0  0
  -19.2591   39.4595  -20.8462 O   0  0  0  0  0  0  0  0  0  0  0  0
  -18.4385   41.0291  -25.0397 C   0  0  0  0  0  0  0  0  0  0  0  0
  -17.1341   41.4522  -25.0684 C   0  0  0  0  0  0  0  0  0  0  0  0
  -16.7962   42.6947  -25.3448 C   0  0  0  0  0  0  0  0  0  0  0  0
  -17.7694   43.6365  -25.6220 C   0  0  0  0  0  0  0  0  0  0  0  0
  -17.7282   45.3545  -26.0277 Cl  0  0  0  0  0  0  0  0  0  0  0  0
  -19.2855   42.6262  -25.4656 S   0  0  0  0  0  0  0  0  0  0  0  0
  1  2  2  0
  2  3  1  0
  3  4  1  0
  5  4  1  6
  5  6  1  0
  6  7  1  0
  7  8  1  0
  8  9  2  0
  9 10  1  0
 10 11  2  0
 11 12  1  0
 12 13  1  0
 13 14  1  0
 14 15  1  0
 15 16  1  0
 16 17  1  0
 17 18  2  0
 11 19  1  0
 19 20  2  0
  7 21  1  0
 21 22  2  0
 21 23  1  0
  2 24  1  0
 24 25  2  0
 25 26  1  0
 26 27  2  0
 27 28  1  0
 27 29  1  0
 23  5  1  0
 29 24  1  0
 20  8  1  0
 17 12  1  0
M  END
$$$$
