
     RDKit          3D

 18 19  0  0  0  0  0  0  0  0999 V2000
  -16.8815   47.0210  -21.1973 C   0  0  0  0  0  0  0  0  0  0  0  0
  -18.1403   46.3702  -21.5127 N   0  0  0  0  0  0  0  0  0  0  0  0
  -17.9317   44.9949  -21.9266 C   0  0  0  0  0  0  0  0  0  0  0  0
  -18.8171   44.0435  -21.1461 C   0  0  0  0  0  0  0  0  0  0  0  0
  -18.6101   42.7326  -21.6460 N   0  0  0  0  0  0  0  0  0  0  0  0
  -17.8820   41.8314  -20.8170 C   0  0  0  0  0  0  0  0  0  0  0  0
  -18.4537   40.4432  -21.1089 C   0  0  0  0  0  0  0  0  0  0  0  0
  -18.1626   40.1226  -22.5318 C   0  0  0  0  0  0  0  0  0  0  0  0
  -17.2524   39.0914  -22.7032 O   0  0  0  0  0  0  0  0  0  0  0  0
  -17.2657   38.1485  -21.6987 C   0  0  0  0  0  0  0  0  0  0  0  0
  -18.2934   37.1283  -22.0910 C   0  0  0  0  0  0  0  0  0  0  0  0
  -18.6493   36.1157  -21.2150 C   0  0  0  0  0  0  0  0  0  0  0  0
  -19.5882   35.1721  -21.5547 C   0  0  0  0  0  0  0  0  0  0  0  0
  -20.2130   35.1930  -22.7759 C   0  0  0  0  0  0  0  0  0  0  0  0
  -19.8723   36.1944  -23.6640 C   0  0  0  0  0  0  0  0  0  0  0  0
  -18.9280   37.1335  -23.3072 C   0  0  0  0  0  0  0  0  0  0  0  0
  -17.7156   41.2782  -23.3770 C   0  0  0  0  0  0  0  0  0  0  0  0
  -18.3259   42.5939  -23.0274 C   0  0  0  0  0  0  0  0  0  0  0  0
  1  2  1  0
  2  3  1  0
  3  4  1  0
  4  5  1  0
  5  6  1  0
  6  7  1  0
  7  8  1  0
  8  9  1  0
  9 10  1  0
 10 11  1  0
 11 12  2  0
 12 13  1  0
 13 14  2  0
 14 15  1  0
 15 16  2  0
  8 17  1  0
 17 18  1  0
 18  5  1  0
 16 11  1  0
M  END
$$$$
