
     RDKit          3D

 41 42  0  0  0  0  0  0  0  0999 V2000
  -22.8554   21.9419  -41.2954 C   0  0  0  0  0  0  0  0  0  0  0  0
  -22.1423   20.7816  -41.9318 C   0  0  0  0  0  0  0  0  0  0  0  0
  -23.2438   19.8932  -42.5331 C   0  0  0  0  0  0  0  0  0  0  0  0
  -21.2285   21.1312  -43.0456 C   0  0  0  0  0  0  0  0  0  0  0  0
  -19.8669   21.6141  -42.6740 C   0  0  2  0  0  0  0  0  0  0  0  0
  -19.1603   20.6725  -41.8281 N   0  0  0  0  0  0  0  0  0  0  0  0
  -17.7616   20.5533  -41.9142 C   0  0  0  0  0  0  0  0  0  0  0  0
  -17.1985   21.2685  -42.7865 O   0  0  0  0  0  0  0  0  0  0  0  0
  -16.9768   19.6274  -41.0256 C   0  0  2  0  0  0  0  0  0  0  0  0
  -15.8678   18.9068  -41.6003 C   0  0  0  0  0  0  0  0  0  0  0  0
  -14.9546   19.4362  -42.5686 C   0  0  0  0  0  0  0  0  0  0  0  0
  -14.7393   18.6517  -43.7221 C   0  0  0  0  0  0  0  0  0  0  0  0
  -13.8919   19.0242  -44.7134 C   0  0  0  0  0  0  0  0  0  0  0  0
  -13.1820   20.1851  -44.6728 C   0  0  0  0  0  0  0  0  0  0  0  0
  -13.3766   20.9842  -43.5371 C   0  0  0  0  0  0  0  0  0  0  0  0
  -14.2351   20.5994  -42.5408 C   0  0  0  0  0  0  0  0  0  0  0  0
  -17.7794   18.9629  -40.0505 N   0  0  0  0  0  0  0  0  0  0  0  0
  -17.3960   18.0700  -39.0468 C   0  0  0  0  0  0  0  0  0  0  0  0
  -16.1626   17.8090  -38.9516 O   0  0  0  0  0  0  0  0  0  0  0  0
  -18.2642   17.3895  -38.0764 C   0  0  0  0  0  0  0  0  0  0  0  0
  -19.6036   17.8330  -37.9820 N   0  0  0  0  0  0  0  0  0  0  0  0
  -19.8717   19.0749  -37.3504 C   0  0  0  0  0  0  0  0  0  0  0  0
  -19.9901   20.1260  -38.0434 O   0  0  0  0  0  0  0  0  0  0  0  0
  -20.0174   19.1727  -35.8960 C   0  0  1  0  0  0  0  0  0  0  0  0
  -20.6907   17.9533  -35.3016 C   0  0  0  0  0  0  0  0  0  0  0  0
  -18.7109   19.2572  -35.2311 N   0  0  0  0  0  0  0  0  0  0  0  0
  -18.0511   18.1069  -34.7319 C   0  0  0  0  0  0  0  0  0  0  0  0
  -18.6884   17.0309  -34.7329 O   0  0  0  0  0  0  0  0  0  0  0  0
  -16.6650   18.1218  -34.2177 C   0  0  1  0  0  0  0  0  0  0  0  0
  -16.2020   19.4914  -34.1705 N   0  0  0  0  0  0  0  0  0  0  0  0
  -16.5379   17.5406  -32.8267 C   0  0  0  0  0  0  0  0  0  0  0  0
  -17.2907   18.4407  -31.9250 C   0  0  0  0  0  0  0  0  0  0  0  0
  -16.6674   19.5351  -31.3763 C   0  0  0  0  0  0  0  0  0  0  0  0
  -17.3488   20.4043  -30.5202 C   0  0  0  0  0  0  0  0  0  0  0  0
  -18.6666   20.1657  -30.2170 C   0  0  0  0  0  0  0  0  0  0  0  0
  -19.4059   20.9993  -29.3644 O   0  0  0  0  0  0  0  0  0  0  0  0
  -19.3076   19.0695  -30.7606 C   0  0  0  0  0  0  0  0  0  0  0  0
  -18.6137   18.2183  -31.6089 C   0  0  0  0  0  0  0  0  0  0  0  0
  -19.8464   22.9469  -42.0770 C   0  0  0  0  0  0  0  0  0  0  0  0
  -20.2857   23.9629  -42.6594 O   0  0  0  0  0  0  0  0  0  0  0  0
  -19.3165   23.1212  -40.7950 O   0  0  0  0  0  0  0  0  0  0  0  0
  1  2  1  0
  2  3  1  0
  2  4  1  0
  5  4  1  1
  5  6  1  0
  6  7  1  0
  7  8  2  0
  7  9  1  0
  9 10  1  6
 10 11  1  0
 11 12  2  0
 12 13  1  0
 13 14  2  0
 14 15  1  0
 15 16  2  0
  9 17  1  0
 17 18  1  0
 18 19  2  0
 18 20  1  0
 20 21  1  0
 21 22  1  0
 22 23  2  0
 22 24  1  0
 24 25  1  1
 24 26  1  0
 26 27  1  0
 27 28  2  0
 27 29  1  0
 29 30  1  1
 29 31  1  0
 31 32  1  0
 32 33  2  0
 33 34  1  0
 34 35  2  0
 35 36  1  0
 35 37  1  0
 37 38  2  0
  5 39  1  0
 39 40  2  0
 39 41  1  0
 16 11  1  0
 38 32  1  0
M  END
$$$$
