
     RDKit          3D

 28 32  0  0  0  0  0  0  0  0999 V2000
    4.9041   11.7540  -40.2788 N   0  0  0  0  0  0  0  0  0  0  0  0
    4.7720   10.6522  -40.0120 C   0  0  0  0  0  0  0  0  0  0  0  0
    4.5973    9.2672  -39.7006 C   0  0  0  0  0  0  0  0  0  0  0  0
    4.3836    8.3589  -40.7510 C   0  0  0  0  0  0  0  0  0  0  0  0
    4.2357    7.0085  -40.5484 C   0  0  0  0  0  0  0  0  0  0  0  0
    4.2997    6.5260  -39.2619 C   0  0  0  0  0  0  0  0  0  0  0  0
    4.5068    7.3905  -38.2179 C   0  0  0  0  0  0  0  0  0  0  0  0
    4.5585    6.8222  -36.8801 C   0  0  0  0  0  0  0  0  0  0  0  0
    4.6000    6.3661  -35.8198 N   0  0  0  0  0  0  0  0  0  0  0  0
    4.6579    8.7731  -38.4238 C   0  0  0  0  0  0  0  0  0  0  0  0
    4.8276    9.6164  -37.2472 C   0  0  0  0  0  0  0  0  0  0  0  0
    3.7769   10.2313  -36.6252 N   0  0  0  0  0  0  0  0  0  0  0  0
    4.1770   10.9107  -35.5635 C   0  0  0  0  0  0  0  0  0  0  0  0
    3.4692   11.6675  -34.6564 C   0  0  0  0  0  0  0  0  0  0  0  0
    2.0975   11.8033  -34.7886 C   0  0  0  0  0  0  0  0  0  0  0  0
    1.3748   12.5595  -33.8841 C   0  0  0  0  0  0  0  0  0  0  0  0
    2.0608   13.1634  -32.8619 C   0  0  0  0  0  0  0  0  0  0  0  0
    3.4407   13.0481  -32.6983 C   0  0  0  0  0  0  0  0  0  0  0  0
    4.1396   12.2951  -33.6040 C   0  0  0  0  0  0  0  0  0  0  0  0
    5.5234   12.1150  -33.5293 C   0  0  0  0  0  0  0  0  0  0  0  0
    6.1990   12.7227  -32.5041 C   0  0  0  0  0  0  0  0  0  0  0  0
    7.5866   12.5396  -32.4329 C   0  0  0  0  0  0  0  0  0  0  0  0
    8.4743   13.3032  -31.1354 Cl  0  0  0  0  0  0  0  0  0  0  0  0
    8.2444   11.7704  -33.3690 C   0  0  0  0  0  0  0  0  0  0  0  0
    7.5692   11.1576  -34.4015 C   0  0  0  0  0  0  0  0  0  0  0  0
    6.1996   11.3437  -34.4642 C   0  0  0  0  0  0  0  0  0  0  0  0
    5.5366   10.7339  -35.4896 C   0  0  0  0  0  0  0  0  0  0  0  0
    5.8907    9.9373  -36.5376 N   0  0  0  0  0  0  0  0  0  0  0  0
  1  2  3  0
  2  3  1  0
  3  4  2  0
  4  5  1  0
  5  6  2  0
  6  7  1  0
  7  8  1  0
  8  9  3  0
  7 10  2  0
 10 11  1  0
 11 12  2  0
 12 13  1  0
 13 14  2  0
 14 15  1  0
 15 16  2  0
 16 17  1  0
 17 18  2  0
 18 19  1  0
 19 20  2  0
 20 21  1  0
 21 22  2  0
 22 23  1  0
 22 24  1  0
 24 25  2  0
 25 26  1  0
 26 27  2  0
 27 28  1  0
 10  3  1  0
 28 11  1  0
 27 13  1  0
 19 14  1  0
 26 20  1  0
M  END
$$$$
