
     RDKit          3D

  6  4  0  0  0  0  0  0  0  0999 V2000
  -18.8233   32.7901  -21.4338 Cl  0  0  0  0  0  0  0  0  0  0  0  0
  -20.2564   33.1827  -21.7320 N   0  0  0  0  0  0  0  0  0  0  0  0
  -19.0723   32.6587  -21.6567 C   0  0  0  0  0  0  0  0  0  0  0  0
  -18.0404   33.2754  -20.8605 N   0  0  0  0  0  0  0  0  0  0  0  0
  -18.7064   31.4751  -22.3288 N   0  0  0  0  0  0  0  0  0  0  0  0
  -19.7154   30.6691  -22.8555 N   0  0  0  0  0  0  0  0  0  0  0  0
  2  3  2  0
  3  4  1  0
  3  5  1  0
  5  6  1  0
M  END
$$$$
