
     RDKit          3D

 33 36  0  0  0  0  0  0  0  0999 V2000
  -28.3737   18.6894  -23.1033 N   0  0  0  0  0  0  0  0  0  0  0  0
  -28.6376   19.9066  -23.8238 C   0  0  0  0  0  0  0  0  0  0  0  0
  -28.5031   19.9838  -25.1501 N   0  0  0  0  0  0  0  0  0  0  0  0
  -28.7608   21.1420  -25.8403 C   0  0  0  0  0  0  0  0  0  0  0  0
  -28.5956   21.1470  -27.2445 N   0  0  0  0  0  0  0  0  0  0  0  0
  -28.4336   20.0048  -28.0888 C   0  0  0  0  0  0  0  0  0  0  0  0
  -29.5886   19.7986  -29.0418 C   0  0  0  0  0  0  0  0  0  0  0  0
  -29.3091   18.6909  -29.9263 N   0  0  0  0  0  0  0  0  0  0  0  0
  -29.6256   17.3399  -29.5507 C   0  0  0  0  0  0  0  0  0  0  0  0
  -29.2464   16.3031  -30.3212 N   0  0  0  0  0  0  0  0  0  0  0  0
  -29.5234   15.0185  -30.0551 C   0  0  0  0  0  0  0  0  0  0  0  0
  -30.2617   14.7604  -28.8858 C   0  0  0  0  0  0  0  0  0  0  0  0
  -30.6084   13.4391  -28.5395 N   0  0  0  0  0  0  0  0  0  0  0  0
  -31.8703   12.9902  -28.5209 C   0  0  0  0  0  0  0  0  0  0  0  0
  -31.8739   11.6473  -28.1403 C   0  0  0  0  0  0  0  0  0  0  0  0
  -30.5903   11.3277  -27.9383 N   0  0  0  0  0  0  0  0  0  0  0  0
  -29.8269   12.4171  -28.1816 C   0  0  0  0  0  0  0  0  0  0  0  0
  -30.6646   15.8034  -28.0741 C   0  0  0  0  0  0  0  0  0  0  0  0
  -31.4136   15.4931  -26.8729 C   0  0  0  0  0  0  0  0  0  0  0  0
  -32.7907   15.7657  -26.7960 C   0  0  0  0  0  0  0  0  0  0  0  0
  -33.4441   15.4593  -25.6185 C   0  0  0  0  0  0  0  0  0  0  0  0
  -32.8027   14.9025  -24.5304 C   0  0  0  0  0  0  0  0  0  0  0  0
  -33.6410   14.5150  -23.0438 Cl  0  0  0  0  0  0  0  0  0  0  0  0
  -31.4453   14.6436  -24.6335 C   0  0  0  0  0  0  0  0  0  0  0  0
  -30.7602   14.9391  -25.8008 C   0  0  0  0  0  0  0  0  0  0  0  0
  -29.0481   14.6089  -25.9525 Cl  0  0  0  0  0  0  0  0  0  0  0  0
  -30.3293   17.0514  -28.4403 N   0  0  0  0  0  0  0  0  0  0  0  0
  -29.1698   22.2706  -25.1693 C   0  0  0  0  0  0  0  0  0  0  0  0
  -29.3243   22.2436  -23.7812 C   0  0  0  0  0  0  0  0  0  0  0  0
  -29.0491   21.0483  -23.1510 C   0  0  0  0  0  0  0  0  0  0  0  0
  -29.1899   20.9629  -21.7391 N   0  0  0  0  0  4  0  0  0  0  0  0
  -28.8481   19.9042  -21.1748 O   0  0  0  0  0  0  0  0  0  0  0  0
  -29.6886   22.0036  -20.9880 O   0  0  0  0  0  1  0  0  0  0  0  0
  1  2  1  0
  2  3  2  0
  3  4  1  0
  4  5  1  0
  5  6  1  0
  6  7  1  0
  7  8  1  0
  8  9  1  0
  9 10  2  0
 10 11  1  0
 11 12  2  0
 12 13  1  0
 13 14  1  0
 14 15  2  0
 15 16  1  0
 16 17  2  0
 12 18  1  0
 18 19  1  0
 19 20  2  0
 20 21  1  0
 21 22  2  0
 22 23  1  0
 22 24  1  0
 24 25  2  0
 25 26  1  0
 18 27  2  0
  4 28  2  0
 28 29  1  0
 29 30  2  0
 30 31  1  0
 31 32  2  0
 31 33  1  0
 30  2  1  0
 27  9  1  0
 17 13  1  0
 25 19  1  0
M  CHG  2  31   1  33  -1
M  END
$$$$
