
     RDKit          3D

 29 34  0  0  0  0  0  0  0  0999 V2000
  -15.6467   -1.7113  -31.7754 C   0  0  0  0  0  0  0  0  0  0  0  0
  -14.8907   -0.6685  -32.5138 C   0  0  2  0  0  0  0  0  0  0  0  0
  -15.5187   -0.3417  -33.8433 C   0  0  0  0  0  0  0  0  0  0  0  0
  -15.4785   -1.5613  -34.7370 C   0  0  0  0  0  0  0  0  0  0  0  0
  -14.1521   -2.2214  -34.8579 C   0  0  1  0  0  0  0  0  0  0  0  0
  -13.5906   -2.4754  -33.4658 C   0  0  1  0  0  0  0  0  0  0  0  0
  -12.2792   -3.1597  -33.4366 C   0  0  0  0  0  0  0  0  0  0  0  0
  -12.2745   -4.2707  -34.4258 C   0  0  0  0  0  0  0  0  0  0  0  0
  -13.1464   -4.4227  -35.4045 C   0  0  0  0  0  0  0  0  0  0  0  0
  -13.0044   -5.5884  -36.3116 C   0  0  0  0  0  0  0  0  0  0  0  0
  -12.7383   -5.0704  -37.7021 C   0  0  1  0  0  0  0  0  0  0  0  0
  -13.4389   -5.7432  -38.6751 O   0  0  0  0  0  0  0  0  0  0  0  0
  -12.9099   -3.5895  -37.7410 C   0  0  0  0  0  0  0  0  0  0  0  0
  -14.2427   -3.1530  -37.1320 C   0  0  0  0  0  0  0  0  0  0  0  0
  -14.2702   -3.4890  -35.6567 C   0  0  2  0  0  0  0  0  0  0  0  0
  -15.5868   -4.1687  -35.3552 C   0  0  0  0  0  0  0  0  0  0  0  0
  -13.4733   -1.0916  -32.8890 C   0  0  2  0  0  0  0  0  0  0  0  0
  -12.7723   -0.9444  -31.6123 C   0  0  0  0  0  0  0  0  0  0  0  0
  -13.4180    0.3443  -31.1297 C   0  0  0  0  0  0  0  0  0  0  0  0
  -14.6115    0.4972  -31.6407 C   0  0  0  0  0  0  0  0  0  0  0  0
  -15.4580    1.6212  -31.4357 N   0  0  0  0  0  0  0  0  0  0  0  0
  -15.0211    2.8300  -31.0151 C   0  0  0  0  0  0  0  0  0  0  0  0
  -16.0870    3.6328  -30.8613 N   0  0  0  0  0  0  0  0  0  0  0  0
  -17.2168    2.9734  -31.1733 C   0  0  0  0  0  0  0  0  0  0  0  0
  -18.5466    3.3401  -31.1679 C   0  0  0  0  0  0  0  0  0  0  0  0
  -19.5395    2.4571  -31.5206 C   0  0  0  0  0  0  0  0  0  0  0  0
  -19.1419    1.1959  -31.8766 C   0  0  0  0  0  0  0  0  0  0  0  0
  -17.7969    0.8150  -31.8857 C   0  0  0  0  0  0  0  0  0  0  0  0
  -16.7949    1.6904  -31.5370 C   0  0  0  0  0  0  0  0  0  0  0  0
  2  1  1  1
  2  3  1  0
  3  4  1  0
  5  4  1  1
  5  6  1  0
  6  7  1  6
  7  8  1  0
  8  9  2  0
  9 10  1  0
 10 11  1  0
 11 12  1  6
 11 13  1  0
 13 14  1  0
 14 15  1  0
 15 16  1  1
  6 17  1  0
 17 18  1  1
 18 19  1  0
 19 20  2  0
 20 21  1  0
 21 22  1  0
 22 23  2  0
 23 24  1  0
 24 25  2  0
 25 26  1  0
 26 27  2  0
 27 28  1  0
 28 29  2  0
 17  2  1  0
 29 21  1  0
 20  2  1  0
 29 24  1  0
 15  5  1  0
 15  9  1  0
M  END
$$$$
