
     RDKit          3D

 23 26  0  0  0  0  0  0  0  0999 V2000
  -31.6058   11.0102  -23.4663 C   0  0  0  0  0  0  0  0  0  0  0  0
  -32.2456   12.3183  -23.2368 C   0  0  0  0  0  0  0  0  0  0  0  0
  -32.2739   12.7107  -22.0628 O   0  0  0  0  0  0  0  0  0  0  0  0
  -32.8282   13.1595  -24.2450 C   0  0  1  0  0  0  0  0  0  0  0  0
  -34.0308   13.9786  -23.7522 C   0  0  0  0  0  0  0  0  0  0  0  0
  -34.0881   15.1968  -24.6690 C   0  0  0  0  0  0  0  0  0  0  0  0
  -33.0529   14.8957  -25.6868 C   0  0  1  0  0  0  0  0  0  0  0  0
  -32.5710   16.0085  -26.5121 C   0  0  2  0  0  0  0  0  0  0  0  0
  -33.6000   16.2425  -27.6089 C   0  0  0  0  0  0  0  0  0  0  0  0
  -33.1448   17.1328  -28.6973 C   0  0  0  0  0  0  0  0  0  0  0  0
  -31.7328   16.9685  -29.1302 C   0  0  1  0  0  0  0  0  0  0  0  0
  -31.3395   18.0496  -30.0859 C   0  0  0  0  0  0  0  0  0  0  0  0
  -29.8713   18.1305  -30.2942 C   0  0  0  0  0  0  0  0  0  0  0  0
  -29.4443   18.5612  -31.3564 O   0  0  0  0  0  0  0  0  0  0  0  0
  -28.8744   17.7110  -29.2682 C   0  0  0  0  0  0  0  0  0  0  0  0
  -29.3819   16.6279  -28.3721 C   0  0  0  0  0  0  0  0  0  0  0  0
  -30.8110   16.8427  -27.9558 C   0  0  1  0  0  0  0  0  0  0  0  0
  -30.8744   18.1077  -27.1388 C   0  0  0  0  0  0  0  0  0  0  0  0
  -31.2866   15.6293  -27.1858 C   0  0  1  0  0  0  0  0  0  0  0  0
  -30.2471   15.0784  -26.2642 C   0  0  0  0  0  0  0  0  0  0  0  0
  -30.8378   13.8107  -25.6439 C   0  0  0  0  0  0  0  0  0  0  0  0
  -31.9725   14.2578  -24.7996 C   0  0  2  0  0  0  0  0  0  0  0  0
  -31.5485   15.2801  -23.8031 C   0  0  0  0  0  0  0  0  0  0  0  0
  1  2  1  0
  2  3  2  0
  4  2  1  1
  4  5  1  0
  5  6  1  0
  7  6  1  1
  7  8  1  0
  8  9  1  6
  9 10  1  0
 11 10  1  1
 11 12  1  0
 12 13  1  0
 13 14  2  0
 13 15  1  0
 15 16  1  0
 16 17  1  0
 17 18  1  1
 17 19  1  0
 19 20  1  1
 20 21  1  0
 21 22  1  0
 22 23  1  1
 22  4  1  0
 22  7  1  0
 19  8  1  0
 17 11  1  0
M  END
$$$$
