
     RDKit          3D

 24 27  0  0  0  0  0  0  0  0999 V2000
  -23.2179   13.3828  -33.3876 C   0  0  0  0  0  0  0  0  0  0  0  0
  -23.0366   14.7314  -33.1374 C   0  0  0  0  0  0  0  0  0  0  0  0
  -21.8011   15.1131  -32.6642 C   0  0  0  0  0  0  0  0  0  0  0  0
  -20.8059   14.1888  -32.4553 C   0  0  0  0  0  0  0  0  0  0  0  0
  -19.4804   14.6081  -31.9466 C   0  0  0  0  0  0  0  0  0  0  0  0
  -18.8311   15.6770  -32.4790 C   0  0  0  0  0  0  0  0  0  0  0  0
  -17.6069   16.0722  -32.0165 C   0  0  0  0  0  0  0  0  0  0  0  0
  -17.0284   15.3645  -30.9885 C   0  0  0  0  0  0  0  0  0  0  0  0
  -15.6978   15.8150  -30.5026 C   0  0  0  0  0  0  0  0  0  0  0  0
  -14.6156   15.0279  -31.1321 C   0  0  0  0  0  0  0  0  0  0  0  0
  -14.5813   14.8852  -32.5009 C   0  0  0  0  0  0  0  0  0  0  0  0
  -13.5801   14.1543  -33.1313 C   0  0  0  0  0  0  0  0  0  0  0  0
  -12.6066   13.5628  -32.3793 C   0  0  0  0  0  0  0  0  0  0  0  0
  -12.6085   13.6837  -31.0091 C   0  0  0  0  0  0  0  0  0  0  0  0
  -13.6189   14.4190  -30.4002 C   0  0  0  0  0  0  0  0  0  0  0  0
  -15.5910   17.2372  -30.7313 N   0  0  0  0  0  0  0  0  0  0  0  0
  -16.1609   18.2374  -30.0332 C   0  0  0  0  0  0  0  0  0  0  0  0
  -15.7861   19.4313  -30.6083 C   0  0  0  0  0  0  0  0  0  0  0  0
  -15.0016   19.1380  -31.6373 N   0  0  0  0  0  0  0  0  0  0  0  0
  -14.8773   17.8032  -31.7197 C   0  0  0  0  0  0  0  0  0  0  0  0
  -17.6823   14.2788  -30.4440 C   0  0  0  0  0  0  0  0  0  0  0  0
  -18.9276   13.8874  -30.9240 C   0  0  0  0  0  0  0  0  0  0  0  0
  -20.9965   12.8487  -32.7075 C   0  0  0  0  0  0  0  0  0  0  0  0
  -22.2343   12.4637  -33.1820 C   0  0  0  0  0  0  0  0  0  0  0  0
  1  2  2  0
  2  3  1  0
  3  4  2  0
  4  5  1  0
  5  6  2  0
  6  7  1  0
  7  8  2  0
  8  9  1  0
  9 10  1  0
 10 11  2  0
 11 12  1  0
 12 13  2  0
 13 14  1  0
 14 15  2  0
  9 16  1  0
 16 17  1  0
 17 18  2  0
 18 19  1  0
 19 20  2  0
  8 21  1  0
 21 22  2  0
  4 23  1  0
 23 24  2  0
 24  1  1  0
 22  5  1  0
 15 10  1  0
 20 16  1  0
M  END
$$$$
