
     RDKit          3D

 22 25  0  0  0  0  0  0  0  0999 V2000
  -21.1757   37.3490  -26.0998 C   0  0  0  0  0  0  0  0  0  0  0  0
  -20.2016   38.4737  -26.3741 C   0  0  0  0  0  0  0  0  0  0  0  0
  -20.6796   39.1175  -27.6731 C   0  0  0  0  0  0  0  0  0  0  0  0
  -21.7171   40.1340  -27.4374 C   0  0  0  0  0  0  0  0  0  0  0  0
  -22.7797   40.1123  -28.0032 O   0  0  0  0  0  0  0  0  0  0  0  0
  -21.4274   41.2180  -26.4644 C   0  0  0  0  0  0  0  0  0  0  0  0
  -20.0802   40.8381  -25.8323 C   0  0  0  0  0  0  0  0  0  0  0  0
  -19.5481   41.9180  -24.9775 C   0  0  0  0  0  0  0  0  0  0  0  0
  -19.1629   41.5517  -23.5929 C   0  0  0  0  0  0  0  0  0  0  0  0
  -18.4748   40.2392  -23.4759 C   0  0  0  0  0  0  0  0  0  0  0  0
  -18.6627   39.5754  -22.1508 C   0  0  0  0  0  0  0  0  0  0  0  0
  -18.5296   40.4205  -20.9581 C   0  0  0  0  0  0  0  0  0  0  0  0
  -18.0724   39.4490  -19.8809 C   0  0  0  0  0  0  0  0  0  0  0  0
  -17.7850   38.1254  -20.6051 C   0  0  0  0  0  0  0  0  0  0  0  0
  -18.9515   37.3283  -20.5757 O   0  0  0  0  0  0  0  0  0  0  0  0
  -17.4917   38.6037  -21.9850 C   0  0  0  0  0  0  0  0  0  0  0  0
  -16.1673   39.3159  -21.9776 C   0  0  0  0  0  0  0  0  0  0  0  0
  -17.5787   37.6081  -23.0689 C   0  0  0  0  0  0  0  0  0  0  0  0
  -18.7490   37.7943  -24.0050 C   0  0  0  0  0  0  0  0  0  0  0  0
  -18.8179   39.2307  -24.5315 C   0  0  0  0  0  0  0  0  0  0  0  0
  -20.1312   39.4701  -25.2250 C   0  0  0  0  0  0  0  0  0  0  0  0
  -21.3302   39.2310  -24.3735 C   0  0  0  0  0  0  0  0  0  0  0  0
  1  2  1  0
  2  3  1  0
  3  4  1  0
  4  5  2  0
  4  6  1  0
  6  7  1  0
  7  8  1  0
  8  9  1  0
  9 10  1  0
 10 11  1  0
 11 12  1  0
 12 13  1  0
 13 14  1  0
 14 15  1  0
 14 16  1  0
 16 17  1  0
 16 18  1  0
 18 19  1  0
 19 20  1  0
 20 21  1  0
 21 22  1  0
 21  2  1  0
 21  7  1  0
 20 10  1  0
 16 11  1  0
M  END
$$$$
