
     RDKit          3D

 24 26  0  0  0  0  0  0  0  0999 V2000
  -30.9235   23.6110  -25.4805 C   0  0  0  0  0  0  0  0  0  0  0  0
  -31.0746   22.9433  -26.6939 O   0  0  0  0  0  0  0  0  0  0  0  0
  -30.1844   22.0561  -27.2452 C   0  0  0  0  0  0  0  0  0  0  0  0
  -30.6419   20.9946  -27.9746 C   0  0  0  0  0  0  0  0  0  0  0  0
  -29.7209   20.1144  -28.5198 C   0  0  0  0  0  0  0  0  0  0  0  0
  -28.3622   20.2937  -28.3379 C   0  0  0  0  0  0  0  0  0  0  0  0
  -27.4088   19.3845  -28.9009 N   0  0  0  0  0  0  0  0  0  0  0  0
  -26.9567   18.3336  -28.0741 C   0  0  0  0  0  0  0  0  0  0  0  0
  -27.4497   18.1136  -26.9296 O   0  0  0  0  0  0  0  0  0  0  0  0
  -25.8694   17.4281  -28.5147 C   0  0  0  0  0  0  0  0  0  0  0  0
  -25.9178   16.1527  -27.8582 N   0  0  0  0  0  0  0  0  0  0  0  0
  -26.6911   15.1059  -28.0777 N   0  0  0  0  0  0  0  0  0  0  0  0
  -26.3949   14.1376  -27.2352 N   0  0  0  0  0  0  0  0  0  0  0  0
  -25.3931   14.5637  -26.4356 C   0  0  0  0  0  0  0  0  0  0  0  0
  -24.7653   13.8038  -25.3656 C   0  0  0  0  0  0  0  0  0  0  0  0
  -23.9935   14.4565  -24.4295 C   0  0  0  0  0  0  0  0  0  0  0  0
  -23.3749   13.7744  -23.3911 C   0  0  0  0  0  0  0  0  0  0  0  0
  -23.5424   12.3995  -23.2996 C   0  0  0  0  0  0  0  0  0  0  0  0
  -24.3211   11.7482  -24.2459 C   0  0  0  0  0  0  0  0  0  0  0  0
  -24.9281   12.4417  -25.2706 C   0  0  0  0  0  0  0  0  0  0  0  0
  -25.6707   11.7344  -26.1524 F   0  0  0  0  0  0  0  0  0  0  0  0
  -25.1274   15.8139  -26.8536 N   0  0  0  0  0  0  0  0  0  0  0  0
  -27.9549   21.3750  -27.5975 C   0  0  0  0  0  0  0  0  0  0  0  0
  -28.8293   22.2721  -27.0389 C   0  0  0  0  0  0  0  0  0  0  0  0
  1  2  1  0
  2  3  1  0
  3  4  2  0
  4  5  1  0
  5  6  2  0
  6  7  1  0
  7  8  1  0
  8  9  2  0
  8 10  1  0
 10 11  1  0
 11 12  1  0
 12 13  2  0
 13 14  1  0
 14 15  1  0
 15 16  2  0
 16 17  1  0
 17 18  2  0
 18 19  1  0
 19 20  2  0
 20 21  1  0
 14 22  2  0
  6 23  1  0
 23 24  2  0
 24  3  1  0
 22 11  1  0
 20 15  1  0
M  END
$$$$
