
     RDKit          3D

 29 32  0  0  0  0  0  0  0  0999 V2000
  -19.5698   30.3525  -22.8373 O   0  0  0  0  0  0  0  0  0  0  0  0
  -20.2354   31.3754  -22.5876 N   0  0  0  0  0  4  0  0  0  0  0  0
  -21.5984   31.2490  -22.5289 O   0  0  0  0  0  1  0  0  0  0  0  0
  -19.5828   32.6302  -22.3723 C   0  0  0  0  0  0  0  0  0  0  0  0
  -20.3189   33.7190  -22.0134 C   0  0  0  0  0  0  0  0  0  0  0  0
  -19.7751   34.9709  -21.7844 C   0  0  0  0  0  0  0  0  0  0  0  0
  -18.4127   35.1052  -21.9322 C   0  0  0  0  0  0  0  0  0  0  0  0
  -17.7841   36.4315  -21.6965 C   0  0  0  0  0  0  0  0  0  0  0  0
  -18.8323   37.3581  -20.5830 S   0  0  0  0  0  0  0  0  0  0  0  0
  -18.4582   39.0987  -20.5729 C   0  0  0  0  0  0  0  0  0  0  0  0
  -18.0628   39.7869  -19.4911 N   0  0  0  0  0  0  0  0  0  0  0  0
  -17.8010   41.1113  -19.5827 C   0  0  0  0  0  0  0  0  0  0  0  0
  -17.9116   41.8155  -20.7197 N   0  0  0  0  0  0  0  0  0  0  0  0
  -18.3108   41.1509  -21.8404 C   0  0  0  0  0  0  0  0  0  0  0  0
  -18.5801   39.7972  -21.7536 C   0  0  0  0  0  0  0  0  0  0  0  0
  -18.9469   39.4411  -23.0199 N   0  0  0  0  0  0  0  0  0  0  0  0
  -18.8960   40.5283  -23.8099 C   0  0  0  0  0  0  0  0  0  0  0  0
  -18.5038   41.6007  -23.0995 N   0  0  0  0  0  0  0  0  0  0  0  0
  -18.3084   42.9615  -23.5143 C   0  0  0  0  0  0  0  0  0  0  0  0
  -18.0494   43.0550  -24.8785 O   0  0  0  0  0  0  0  0  0  0  0  0
  -18.2677   44.3678  -25.2419 C   0  0  1  0  0  0  0  0  0  0  0  0
  -18.8595   44.3722  -26.6361 C   0  0  0  0  0  0  0  0  0  0  0  0
  -20.2232   44.0431  -26.4813 O   0  0  0  0  0  0  0  0  0  0  0  0
  -19.2957   44.9398  -24.2992 C   0  0  2  0  0  0  0  0  0  0  0  0
  -18.6955   45.9616  -23.5627 O   0  0  0  0  0  0  0  0  0  0  0  0
  -19.5935   43.7532  -23.3814 C   0  0  2  0  0  0  0  0  0  0  0  0
  -19.7535   44.2390  -22.0967 O   0  0  0  0  0  0  0  0  0  0  0  0
  -17.6497   34.0057  -22.2972 C   0  0  0  0  0  0  0  0  0  0  0  0
  -18.2243   32.7704  -22.5181 C   0  0  0  0  0  0  0  0  0  0  0  0
  1  2  2  0
  2  3  1  0
  2  4  1  0
  4  5  2  0
  5  6  1  0
  6  7  2  0
  7  8  1  0
  8  9  1  0
  9 10  1  0
 10 11  2  0
 11 12  1  0
 12 13  2  0
 13 14  1  0
 14 15  2  0
 15 16  1  0
 16 17  2  0
 17 18  1  0
 18 19  1  0
 19 20  1  0
 20 21  1  0
 21 22  1  6
 22 23  1  0
 21 24  1  0
 24 25  1  1
 24 26  1  0
 26 27  1  1
  7 28  1  0
 28 29  2  0
 29  4  1  0
 15 10  1  0
 26 19  1  0
 18 14  1  0
M  CHG  2   2   1   3  -1
M  END
$$$$
