
     RDKit          3D

 36 40  0  0  0  0  0  0  0  0999 V2000
  -23.4325   24.6183  -30.7137 C   0  0  0  0  0  0  0  0  0  0  0  0
  -23.8389   23.2874  -30.9544 O   0  0  0  0  0  0  0  0  0  0  0  0
  -23.4039   22.5830  -32.0761 C   0  0  0  0  0  0  0  0  0  0  0  0
  -23.5271   23.0534  -33.3494 C   0  0  0  0  0  0  0  0  0  0  0  0
  -23.0829   22.3202  -34.4148 C   0  0  0  0  0  0  0  0  0  0  0  0
  -23.2070   22.7895  -35.6772 N   0  0  0  0  0  0  0  0  0  0  0  0
  -22.7876   22.1082  -36.7519 C   0  0  0  0  0  0  0  0  0  0  0  0
  -22.9627   22.6839  -38.0331 N   0  0  0  0  0  0  0  0  0  0  0  0
  -23.1270   21.7533  -39.1101 C   0  0  0  0  0  0  0  0  0  0  0  0
  -22.2567   22.1326  -40.2924 C   0  0  0  0  0  0  0  0  0  0  0  0
  -22.4651   23.5778  -40.6989 C   0  0  0  0  0  0  0  0  0  0  0  0
  -23.7789   24.0577  -40.4294 N   0  0  0  0  0  0  0  0  0  0  0  0
  -24.1069   25.0904  -41.3925 C   0  0  0  0  0  0  0  0  0  0  0  0
  -23.9912   24.5665  -39.1158 C   0  0  0  0  0  0  0  0  0  0  0  0
  -22.9564   24.1343  -38.1159 C   0  0  0  0  0  0  0  0  0  0  0  0
  -22.2200   20.9089  -36.5727 N   0  0  0  0  0  0  0  0  0  0  0  0
  -22.0497   20.3501  -35.3457 C   0  0  0  0  0  0  0  0  0  0  0  0
  -21.4495   19.0842  -35.1897 N   0  0  0  0  0  0  0  0  0  0  0  0
  -20.0540   18.9305  -34.8145 C   0  0  0  0  0  0  0  0  0  0  0  0
  -19.7815   19.1536  -33.3674 C   0  0  0  0  0  0  0  0  0  0  0  0
  -19.5143   17.8166  -32.7100 C   0  0  0  0  0  0  0  0  0  0  0  0
  -18.3369   17.1534  -33.2688 N   0  0  0  0  0  0  0  0  0  0  0  0
  -18.4796   15.7580  -33.0043 C   0  0  0  0  0  0  0  0  0  0  0  0
  -17.4199   14.9181  -33.6034 C   0  0  0  0  0  0  0  0  0  0  0  0
  -17.6005   14.1331  -34.7152 C   0  0  0  0  0  0  0  0  0  0  0  0
  -16.5356   13.3772  -35.2168 C   0  0  0  0  0  0  0  0  0  0  0  0
  -15.2976   13.3969  -34.6220 C   0  0  0  0  0  0  0  0  0  0  0  0
  -15.1190   14.1820  -33.5108 C   0  0  0  0  0  0  0  0  0  0  0  0
  -16.1661   14.9297  -33.0118 C   0  0  0  0  0  0  0  0  0  0  0  0
  -18.1920   17.3946  -34.6648 C   0  0  0  0  0  0  0  0  0  0  0  0
  -19.5612   17.5957  -35.3132 C   0  0  0  0  0  0  0  0  0  0  0  0
  -22.4848   21.0619  -34.2579 C   0  0  0  0  0  0  0  0  0  0  0  0
  -22.3749   20.6150  -32.9607 C   0  0  0  0  0  0  0  0  0  0  0  0
  -22.8263   21.3606  -31.8804 C   0  0  0  0  0  0  0  0  0  0  0  0
  -22.6782   20.8351  -30.5846 O   0  0  0  0  0  0  0  0  0  0  0  0
  -23.3064   19.6229  -30.2833 C   0  0  0  0  0  0  0  0  0  0  0  0
  1  2  1  0
  2  3  1  0
  3  4  2  0
  4  5  1  0
  5  6  2  0
  6  7  1  0
  7  8  1  0
  8  9  1  0
  9 10  1  0
 10 11  1  0
 11 12  1  0
 12 13  1  0
 12 14  1  0
 14 15  1  0
  7 16  2  0
 16 17  1  0
 17 18  1  0
 18 19  1  0
 19 20  1  0
 20 21  1  0
 21 22  1  0
 22 23  1  0
 23 24  1  0
 24 25  2  0
 25 26  1  0
 26 27  2  0
 27 28  1  0
 28 29  2  0
 22 30  1  0
 30 31  1  0
 17 32  2  0
 32 33  1  0
 33 34  2  0
 34 35  1  0
 35 36  1  0
 34  3  1  0
 32  5  1  0
 15  8  1  0
 31 19  1  0
 29 24  1  0
M  END
$$$$
