
     RDKit          3D

 13 13  0  0  0  0  0  0  0  0999 V2000
  -37.6370   48.1985  -23.8847 C   0  0  0  0  0  0  0  0  0  0  0  0
  -38.5626   47.1022  -24.2018 C   0  0  0  0  0  0  0  0  0  0  0  0
  -38.3801   45.9600  -23.6964 O   0  0  0  0  0  0  0  0  0  0  0  0
  -39.6594   47.2333  -25.0439 O   0  0  0  0  0  0  0  0  0  0  0  0
  -40.5347   46.1676  -25.3343 C   0  0  0  0  0  0  0  0  0  0  0  0
  -40.6160   45.8743  -26.8200 C   0  0  0  0  0  0  0  0  0  0  0  0
  -41.9904   45.7787  -27.2084 N   0  0  0  0  0  0  0  0  0  0  0  0
  -42.7349   44.8680  -26.3416 C   0  0  0  0  0  0  0  0  0  0  0  0
  -42.8510   45.4055  -24.9323 C   0  0  0  0  0  0  0  0  0  0  0  0
  -41.9128   46.5889  -24.8308 C   0  0  0  0  0  0  0  0  0  0  0  0
  -42.3881   47.6895  -25.7850 C   0  0  0  0  0  0  0  0  0  0  0  0
  -42.6308   47.0843  -27.1502 C   0  0  0  0  0  0  0  0  0  0  0  0
  -40.3976   46.7139  -25.2224 Cl  0  0  0  0  0  0  0  0  0  0  0  0
  1  2  1  0
  2  3  2  0
  2  4  1  0
  4  5  1  0
  5  6  1  0
  6  7  1  0
  7  8  1  0
  8  9  1  0
  9 10  1  0
 10 11  1  0
 11 12  1  0
 10  5  1  0
 12  7  1  0
M  END
$$$$
