
     RDKit          3D

 23 22  0  0  0  0  0  0  0  0999 V2000
    4.9125   32.1014  -15.7639 C   0  0  0  0  0  0  0  0  0  0  0  0
    5.7693   30.8876  -15.5242 C   0  0  0  0  0  0  0  0  0  0  0  0
    4.9104   29.6981  -15.1880 C   0  0  0  0  0  0  0  0  0  0  0  0
    5.8230   28.4907  -14.9994 C   0  0  0  0  0  0  0  0  0  0  0  0
    5.6702   27.6077  -16.2229 C   0  0  0  0  0  0  0  0  0  0  0  0
    5.3453   26.1882  -15.8493 C   0  0  0  0  0  0  0  0  0  0  0  0
    6.2906   25.2037  -16.4724 C   0  0  0  0  0  0  0  0  0  0  0  0
    5.4386   24.3009  -17.3802 C   0  0  0  0  0  0  0  0  0  0  0  0
    4.7299   23.3726  -16.4908 C   0  0  0  0  0  0  0  0  0  0  0  0
    4.1208   22.3257  -16.9719 C   0  0  0  0  0  0  0  0  0  0  0  0
    3.5380   22.1597  -18.3115 C   0  0  0  0  0  0  0  0  0  0  0  0
    2.5738   20.9894  -18.3305 C   0  0  0  0  0  0  0  0  0  0  0  0
    3.0461   19.8910  -19.2490 C   0  0  0  0  0  0  0  0  0  0  0  0
    2.1677   18.7161  -19.3249 C   0  0  0  0  0  0  0  0  0  0  0  0
    1.4143   18.3961  -20.5376 C   0  0  0  0  0  0  0  0  0  0  0  0
    0.5930   17.1947  -20.6730 C   0  0  0  0  0  0  0  0  0  0  0  0
   -0.1586   16.9688  -21.9474 C   0  0  0  0  0  0  0  0  0  0  0  0
    0.0368   15.5113  -22.3211 C   0  0  0  0  0  0  0  0  0  0  0  0
    1.1556   15.0528  -22.6403 O   0  0  0  0  0  0  0  0  0  0  0  0
   -1.0909   14.6511  -22.3046 N   0  0  0  0  0  0  0  0  0  0  0  0
   -0.9937   13.2396  -22.6201 C   0  0  0  0  0  0  0  0  0  0  0  0
   -0.9177   12.4661  -21.3164 C   0  0  0  0  0  0  0  0  0  0  0  0
   -1.8505   12.9841  -20.4500 O   0  0  0  0  0  0  0  0  0  0  0  0
  1  2  1  0
  2  3  1  0
  3  4  1  0
  4  5  1  0
  5  6  1  0
  6  7  1  0
  7  8  1  0
  8  9  1  0
  9 10  2  0
 10 11  1  0
 11 12  1  0
 12 13  1  0
 13 14  1  0
 14 15  1  0
 15 16  1  0
 16 17  1  0
 17 18  1  0
 18 19  2  0
 18 20  1  0
 20 21  1  0
 21 22  1  0
 22 23  1  0
M  END
$$$$
