
     RDKit          3D

 30 33  0  0  0  0  0  0  0  0999 V2000
  -17.6632   40.6563  -18.0716 N   0  0  0  0  0  0  0  0  0  0  0  0
  -18.1172   40.4074  -19.3978 C   0  0  0  0  0  0  0  0  0  0  0  0
  -18.4172   39.1519  -19.7759 N   0  0  0  0  0  0  0  0  0  0  0  0
  -18.8460   38.9414  -21.0314 C   0  0  0  0  0  0  0  0  0  0  0  0
  -19.2642   37.3201  -21.6470 S   0  0  0  0  0  0  0  0  0  0  0  0
  -17.7184   36.3875  -21.8943 C   0  0  0  0  0  0  0  0  0  0  0  0
  -18.1090   34.9635  -22.0248 C   0  0  0  0  0  0  0  0  0  0  0  0
  -18.9350   34.5994  -23.0613 C   0  0  0  0  0  0  0  0  0  0  0  0
  -19.3409   33.3032  -23.2563 C   0  0  0  0  0  0  0  0  0  0  0  0
  -18.9052   32.3231  -22.3798 C   0  0  0  0  0  0  0  0  0  0  0  0
  -19.3095   30.9625  -22.5525 N   0  0  0  0  0  4  0  0  0  0  0  0
  -18.7231   30.0558  -21.9455 O   0  0  0  0  0  0  0  0  0  0  0  0
  -20.3461   30.6306  -23.3861 O   0  0  0  0  0  1  0  0  0  0  0  0
  -18.0801   32.6785  -21.3426 C   0  0  0  0  0  0  0  0  0  0  0  0
  -17.6723   33.9938  -21.1502 C   0  0  0  0  0  0  0  0  0  0  0  0
  -18.9735   40.0145  -21.9181 C   0  0  0  0  0  0  0  0  0  0  0  0
  -19.3735   40.0744  -23.2040 N   0  0  0  0  0  0  0  0  0  0  0  0
  -19.3192   41.3579  -23.6154 C   0  0  0  0  0  0  0  0  0  0  0  0
  -18.8830   42.0868  -22.5734 N   0  0  0  0  0  0  0  0  0  0  0  0
  -18.6860   43.5077  -22.6169 C   0  0  0  0  0  0  0  0  0  0  0  0
  -19.2355   44.0724  -23.7349 O   0  0  0  0  0  0  0  0  0  0  0  0
  -18.2729   44.6228  -24.5312 C   0  0  0  0  0  0  0  0  0  0  0  0
  -17.7695   43.7298  -25.6363 C   0  0  0  0  0  0  0  0  0  0  0  0
  -18.7575   42.9034  -26.1129 O   0  0  0  0  0  0  0  0  0  0  0  0
  -17.1809   45.0209  -23.5886 C   0  0  0  0  0  0  0  0  0  0  0  0
  -15.9382   45.0937  -24.2173 O   0  0  0  0  0  0  0  0  0  0  0  0
  -17.2229   43.8910  -22.5784 C   0  0  0  0  0  0  0  0  0  0  0  0
  -16.9033   44.4688  -21.3340 O   0  0  0  0  0  0  0  0  0  0  0  0
  -18.6609   41.2978  -21.5143 C   0  0  0  0  0  0  0  0  0  0  0  0
  -18.2349   41.4660  -20.2483 N   0  0  0  0  0  0  0  0  0  0  0  0
  1  2  1  0
  2  3  2  0
  3  4  1  0
  4  5  1  0
  5  6  1  0
  6  7  1  0
  7  8  2  0
  8  9  1  0
  9 10  2  0
 10 11  1  0
 11 12  2  0
 11 13  1  0
 10 14  1  0
 14 15  2  0
  4 16  2  0
 16 17  1  0
 17 18  2  0
 18 19  1  0
 19 20  1  0
 20 21  1  0
 21 22  1  0
 22 23  1  0
 23 24  1  0
 22 25  1  0
 25 26  1  0
 25 27  1  0
 27 28  1  0
 19 29  1  0
 29 30  2  0
 30  2  1  0
 15  7  1  0
 29 16  1  0
 27 20  1  0
M  CHG  2  11   1  13  -1
M  END
$$$$
