
     RDKit          3D

 36 38  0  0  0  0  0  0  0  0999 V2000
  -17.0638   20.1560  -37.7762 C   0  0  0  0  0  0  0  0  0  0  0  0
  -18.1092   19.1856  -37.3024 C   0  0  2  0  0  0  0  0  0  0  0  0
  -19.3945   19.7409  -37.0576 N   0  0  0  0  0  0  0  0  0  0  0  0
  -20.5124   19.3470  -37.8483 C   0  0  0  0  0  0  0  0  0  0  0  0
  -20.3124   18.5145  -38.7625 O   0  0  0  0  0  0  0  0  0  0  0  0
  -21.9036   19.8591  -37.6659 C   0  0  0  0  0  0  0  0  0  0  0  0
  -22.1713   19.9674  -36.1887 C   0  0  0  0  0  0  0  0  0  0  0  0
  -22.9203   18.8995  -38.2623 C   0  0  0  0  0  0  0  0  0  0  0  0
  -21.9815   21.0297  -38.3834 O   0  0  0  0  0  0  0  0  0  0  0  0
  -21.7990   21.4052  -39.6409 C   0  0  0  0  0  0  0  0  0  0  0  0
  -20.6040   21.7130  -40.2141 C   0  0  0  0  0  0  0  0  0  0  0  0
  -20.5317   22.0989  -41.5650 C   0  0  0  0  0  0  0  0  0  0  0  0
  -21.6509   22.1765  -42.3402 C   0  0  0  0  0  0  0  0  0  0  0  0
  -21.6271   22.5801  -43.7731 C   0  0  0  0  0  0  0  0  0  0  0  0
  -21.3314   23.9456  -43.7813 F   0  0  0  0  0  0  0  0  0  0  0  0
  -22.8537   22.3887  -44.3653 F   0  0  0  0  0  0  0  0  0  0  0  0
  -20.6184   21.9609  -44.4759 F   0  0  0  0  0  0  0  0  0  0  0  0
  -22.8784   21.8594  -41.7394 C   0  0  0  0  0  0  0  0  0  0  0  0
  -22.8821   21.5069  -40.4782 N   0  0  0  0  0  0  0  0  0  0  0  0
  -17.6419   18.0646  -36.4467 C   0  0  1  0  0  0  0  0  0  0  0  0
  -18.2909   16.7873  -36.7683 C   0  0  0  0  0  0  0  0  0  0  0  0
  -18.4258   15.6617  -35.9213 C   0  0  0  0  0  0  0  0  0  0  0  0
  -19.5525   15.6134  -35.0684 C   0  0  0  0  0  0  0  0  0  0  0  0
  -19.7440   14.5653  -34.2010 C   0  0  0  0  0  0  0  0  0  0  0  0
  -18.8587   13.5207  -34.1196 C   0  0  0  0  0  0  0  0  0  0  0  0
  -19.1002   12.1820  -33.0138 Cl  0  0  0  0  0  0  0  0  0  0  0  0
  -17.7772   13.5473  -34.9249 C   0  0  0  0  0  0  0  0  0  0  0  0
  -17.5632   14.5847  -35.8003 C   0  0  0  0  0  0  0  0  0  0  0  0
  -16.1487   17.9548  -36.3557 C   0  0  0  0  0  0  0  0  0  0  0  0
  -15.3809   18.3978  -35.3449 C   0  0  0  0  0  0  0  0  0  0  0  0
  -14.0152   18.2689  -35.4187 C   0  0  0  0  0  0  0  0  0  0  0  0
  -13.3734   17.7021  -36.4904 C   0  0  0  0  0  0  0  0  0  0  0  0
  -14.1409   17.2300  -37.5566 C   0  0  0  0  0  0  0  0  0  0  0  0
  -13.5601   16.7129  -38.6744 C   0  0  0  0  0  0  0  0  0  0  0  0
  -13.0284   16.2293  -39.7444 N   0  0  0  0  0  0  0  0  0  0  0  0
  -15.5357   17.3786  -37.4395 C   0  0  0  0  0  0  0  0  0  0  0  0
  2  1  1  1
  2  3  1  0
  3  4  1  0
  4  5  2  0
  4  6  1  0
  6  7  1  0
  6  8  1  0
  6  9  1  0
  9 10  1  0
 10 11  2  0
 11 12  1  0
 12 13  2  0
 13 14  1  0
 14 15  1  0
 14 16  1  0
 14 17  1  0
 13 18  1  0
 18 19  2  0
  2 20  1  0
 20 21  1  6
 21 22  1  0
 22 23  2  0
 23 24  1  0
 24 25  2  0
 25 26  1  0
 25 27  1  0
 27 28  2  0
 20 29  1  0
 29 30  2  0
 30 31  1  0
 31 32  2  0
 32 33  1  0
 33 34  1  0
 34 35  3  0
 33 36  2  0
 19 10  1  0
 28 22  1  0
 36 29  1  0
M  END
$$$$
