
     RDKit          3D

 34 38  0  0  0  0  0  0  0  0999 V2000
  -12.8227   43.5720  -17.2689 C   0  0  0  0  0  0  0  0  0  0  0  0
  -13.5436   44.1384  -18.3312 O   0  0  0  0  0  0  0  0  0  0  0  0
  -14.4352   43.4211  -19.1129 C   0  0  0  0  0  0  0  0  0  0  0  0
  -15.0126   42.2607  -18.6410 C   0  0  0  0  0  0  0  0  0  0  0  0
  -15.9107   41.5520  -19.4484 C   0  0  0  0  0  0  0  0  0  0  0  0
  -16.2186   41.9999  -20.6968 C   0  0  0  0  0  0  0  0  0  0  0  0
  -17.1557   41.2773  -21.5646 C   0  0  0  0  0  0  0  0  0  0  0  0
  -17.8130   41.8948  -22.5993 C   0  0  0  0  0  0  0  0  0  0  0  0
  -18.6976   41.1479  -23.3929 C   0  0  0  0  0  0  0  0  0  0  0  0
  -18.8702   39.8112  -23.0963 C   0  0  0  0  0  0  0  0  0  0  0  0
  -19.7261   39.0201  -23.8294 C   0  0  0  0  0  0  0  0  0  0  0  0
  -20.4259   39.5772  -24.9204 N   0  0  0  0  0  0  0  0  0  0  0  0
  -20.0189   40.7170  -25.6962 C   0  0  0  0  0  0  0  0  0  0  0  0
  -21.2375   41.4300  -26.1660 C   0  0  0  0  0  0  0  0  0  0  0  0
  -21.9374   40.6447  -27.0701 O   0  0  0  0  0  0  0  0  0  0  0  0
  -21.9769   39.3219  -26.7635 C   0  0  0  0  0  0  0  0  0  0  0  0
  -21.6685   38.9662  -25.3323 C   0  0  2  0  0  0  0  0  0  0  0  0
  -22.7945   39.1525  -24.3849 C   0  0  0  0  0  0  0  0  0  0  0  0
  -19.8742   37.7003  -23.4988 N   0  0  0  0  0  0  0  0  0  0  0  0
  -19.2238   37.1160  -22.4844 C   0  0  0  0  0  0  0  0  0  0  0  0
  -19.4073   35.7314  -22.1683 N   0  0  0  0  0  0  0  0  0  0  0  0
  -20.2866   34.9374  -23.0194 C   0  0  0  0  0  0  0  0  0  0  0  0
  -19.5720   33.5899  -23.1674 C   0  0  0  0  0  0  0  0  0  0  0  0
  -19.4543   33.0574  -21.9046 O   0  0  0  0  0  0  0  0  0  0  0  0
  -18.4963   33.6969  -21.1419 C   0  0  0  0  0  0  0  0  0  0  0  0
  -18.7200   35.1863  -21.0331 C   0  0  2  0  0  0  0  0  0  0  0  0
  -19.4844   35.5390  -19.7550 C   0  0  0  0  0  0  0  0  0  0  0  0
  -18.3855   37.8799  -21.7631 N   0  0  0  0  0  0  0  0  0  0  0  0
  -18.2014   39.2029  -22.0508 C   0  0  0  0  0  0  0  0  0  0  0  0
  -17.3635   39.9533  -21.3152 N   0  0  0  0  0  0  0  0  0  0  0  0
  -15.6164   43.1750  -21.1399 C   0  0  0  0  0  0  0  0  0  0  0  0
  -14.7302   43.8996  -20.3786 C   0  0  0  0  0  0  0  0  0  0  0  0
  -14.1054   45.1489  -20.8813 C   0  0  0  0  0  0  0  0  0  0  0  0
  -14.9401   45.8395  -21.7689 O   0  0  0  0  0  0  0  0  0  0  0  0
  1  2  1  0
  2  3  1  0
  3  4  2  0
  4  5  1  0
  5  6  2  0
  6  7  1  0
  7  8  2  0
  8  9  1  0
  9 10  2  0
 10 11  1  0
 11 12  1  0
 12 13  1  0
 13 14  1  0
 14 15  1  0
 15 16  1  0
 16 17  1  0
 17 18  1  1
 11 19  2  0
 19 20  1  0
 20 21  1  0
 21 22  1  0
 22 23  1  0
 23 24  1  0
 24 25  1  0
 25 26  1  0
 26 27  1  1
 20 28  2  0
 28 29  1  0
 29 30  2  0
  6 31  1  0
 31 32  2  0
 32 33  1  0
 33 34  1  0
 32  3  1  0
 30  7  1  0
 29 10  1  0
 17 12  1  0
 26 21  1  0
M  END
$$$$
