
     RDKit          3D

 20 20  0  0  0  0  0  0  0  0999 V2000
  -19.0654   38.0116  -26.1184 C   0  0  0  0  0  0  0  0  0  0  0  0
  -19.5938   37.9217  -24.7215 C   0  0  0  0  0  0  0  0  0  0  0  0
  -19.5599   36.5523  -24.2099 N   0  0  0  0  0  0  0  0  0  0  0  0
  -20.0801   36.5233  -22.8608 C   0  0  1  0  0  0  0  0  0  0  0  0
  -20.0634   35.1409  -22.2990 C   0  0  0  0  0  0  0  0  0  0  0  0
  -18.8186   34.3537  -22.6464 C   0  0  2  0  0  0  0  0  0  0  0  0
  -18.7686   33.1112  -21.8018 C   0  0  0  0  0  0  0  0  0  0  0  0
  -17.4186   35.3646  -22.2308 S   0  0  0  0  0  6  0  0  0  0  0  0
  -16.5846   35.5691  -23.4647 O   0  0  0  0  0  0  0  0  0  0  0  0
  -16.5918   34.7244  -21.1337 O   0  0  0  0  0  0  0  0  0  0  0  0
  -18.0045   36.8820  -21.6919 C   0  0  0  0  0  0  0  0  0  0  0  0
  -17.2363   38.1591  -20.6446 S   0  0  0  0  0  0  0  0  0  0  0  0
  -18.6467   39.2891  -20.7030 C   0  0  0  0  0  0  0  0  0  0  0  0
  -18.7360   40.8520  -19.9065 S   0  0  0  0  0  6  0  0  0  0  0  0
  -20.2340   41.6145  -20.2033 N   0  0  0  0  0  0  0  0  0  0  0  0
  -17.6345   41.7600  -20.3742 O   0  0  0  0  0  0  0  0  0  0  0  0
  -18.5766   40.7078  -18.4188 O   0  0  0  0  0  0  0  0  0  0  0  0
  -19.5628   38.6264  -21.4902 C   0  0  0  0  0  0  0  0  0  0  0  0
  -19.2162   37.4254  -21.9712 C   0  0  0  0  0  0  0  0  0  0  0  0
  -19.1045   37.7404  -22.0746 Cl  0  0  0  0  0  0  0  0  0  0  0  0
  1  2  1  0
  2  3  1  0
  4  3  1  6
  4  5  1  0
  5  6  1  0
  6  7  1  1
  6  8  1  0
  8  9  2  0
  8 10  2  0
  8 11  1  0
 11 12  1  0
 12 13  1  0
 13 14  1  0
 14 15  1  0
 14 16  2  0
 14 17  2  0
 13 18  2  0
 18 19  1  0
 19  4  1  0
 19 11  2  0
M  END
$$$$
