
     RDKit          3D

 39 44  0  0  0  0  0  0  0  0999 V2000
  -25.7684   31.4274  -34.8690 C   0  0  0  0  0  0  0  0  0  0  0  0
  -24.6463   30.5766  -35.1171 O   0  0  0  0  0  0  0  0  0  0  0  0
  -24.9361   29.2075  -35.2926 C   0  0  0  0  0  0  0  0  0  0  0  0
  -23.8835   28.3358  -35.4514 C   0  0  0  0  0  0  0  0  0  0  0  0
  -24.1362   26.9932  -35.6244 C   0  0  0  0  0  0  0  0  0  0  0  0
  -25.4330   26.5323  -35.6351 C   0  0  0  0  0  0  0  0  0  0  0  0
  -25.6440   25.0994  -35.8323 C   0  0  0  0  0  0  0  0  0  0  0  0
  -26.1846   24.3494  -34.7683 N   0  0  0  0  0  0  0  0  0  0  0  0
  -25.2969   23.4514  -34.0611 C   0  0  0  0  0  0  0  0  0  0  0  0
  -25.2481   24.3772  -32.9052 C   0  0  0  0  0  0  0  0  0  0  0  0
  -26.5077   24.9439  -33.5215 C   0  0  0  0  0  0  0  0  0  0  0  0
  -27.6431   24.1259  -32.8821 C   0  0  0  0  0  0  0  0  0  0  0  0
  -27.1652   22.7781  -32.6981 N   0  0  0  0  0  0  0  0  0  0  0  0
  -27.5569   21.9164  -31.6196 C   0  0  0  0  0  0  0  0  0  0  0  0
  -27.1790   20.5977  -31.5480 C   0  0  0  0  0  0  0  0  0  0  0  0
  -27.5878   19.7961  -30.4752 C   0  0  0  0  0  0  0  0  0  0  0  0
  -28.3631   20.3057  -29.4862 C   0  0  0  0  0  0  0  0  0  0  0  0
  -28.7728   19.4638  -28.3671 C   0  0  0  0  0  0  0  0  0  0  0  0
  -29.6363   18.4248  -28.5008 C   0  0  0  0  0  0  0  0  0  0  0  0
  -29.9875   17.5957  -27.4017 C   0  0  0  0  0  0  0  0  0  0  0  0
  -30.8300   16.5923  -27.5693 O   0  0  0  0  0  0  0  0  0  0  0  0
  -31.5805   15.6165  -27.0925 C   0  0  0  0  0  0  0  0  0  0  0  0
  -32.8459   15.2756  -27.8053 C   0  0  0  0  0  0  0  0  0  0  0  0
  -33.0364   13.7668  -27.8021 C   0  0  0  0  0  0  0  0  0  0  0  0
  -34.0715   15.9719  -27.3113 C   0  0  0  0  0  0  0  0  0  0  0  0
  -32.7439   15.6412  -29.1804 O   0  0  0  0  0  0  0  0  0  0  0  0
  -29.3984   17.9157  -26.1948 C   0  0  0  0  0  0  0  0  0  0  0  0
  -28.5530   18.9459  -26.1038 N   0  0  0  0  0  0  0  0  0  0  0  0
  -27.9182   19.3658  -24.9953 N   0  0  0  0  0  0  0  0  0  0  0  0
  -27.1714   20.4248  -25.3136 C   0  0  0  0  0  0  0  0  0  0  0  0
  -27.3521   20.6718  -26.6799 C   0  0  0  0  0  0  0  0  0  0  0  0
  -26.7412   21.7327  -27.4192 C   0  0  0  0  0  0  0  0  0  0  0  0
  -26.2408   22.6133  -28.0089 N   0  0  0  0  0  0  0  0  0  0  0  0
  -28.2146   19.7300  -27.1243 C   0  0  0  0  0  0  0  0  0  0  0  0
  -28.7318   21.6327  -29.5695 C   0  0  0  0  0  0  0  0  0  0  0  0
  -28.3352   22.4050  -30.6079 N   0  0  0  0  0  0  0  0  0  0  0  0
  -26.1888   22.2577  -33.6789 C   0  0  0  0  0  0  0  0  0  0  0  0
  -26.4564   27.4215  -35.4753 C   0  0  0  0  0  0  0  0  0  0  0  0
  -26.1782   28.7187  -35.3104 N   0  0  0  0  0  0  0  0  0  0  0  0
  1  2  1  0
  2  3  1  0
  3  4  2  0
  4  5  1  0
  5  6  2  0
  6  7  1  0
  7  8  1  0
  8  9  1  0
  9 10  1  0
 10 11  1  0
 11 12  1  0
 12 13  1  0
 13 14  1  0
 14 15  2  0
 15 16  1  0
 16 17  2  0
 17 18  1  0
 18 19  2  0
 19 20  1  0
 20 21  1  0
 21 22  1  0
 22 23  1  0
 23 24  1  0
 23 25  1  0
 23 26  1  0
 20 27  2  0
 27 28  1  0
 28 29  1  0
 29 30  2  0
 30 31  1  0
 31 32  1  0
 32 33  3  0
 31 34  2  0
 17 35  1  0
 35 36  2  0
 13 37  1  0
  6 38  1  0
 38 39  2  0
 39  3  1  0
 11  8  1  0
 36 14  1  0
 37  9  1  0
 34 18  1  0
 34 28  1  0
M  END
$$$$
