
     RDKit          3D

 20 22  0  0  0  0  0  0  0  0999 V2000
    6.4514    8.4174  -28.0312 C   0  0  0  0  0  0  0  0  0  0  0  0
    6.6911    9.6237  -28.8831 C   0  0  0  0  0  0  0  0  0  0  0  0
    7.0913   10.8253  -28.3401 C   0  0  0  0  0  0  0  0  0  0  0  0
    7.2993   11.9093  -29.1682 C   0  0  0  0  0  0  0  0  0  0  0  0
    7.6679   13.0283  -28.6985 O   0  0  0  0  0  0  0  0  0  0  0  0
    7.1147   11.7856  -30.4598 O   0  0  0  0  0  0  0  0  0  0  0  0
    6.7348   10.6553  -31.0009 C   0  0  0  0  0  0  0  0  0  0  0  0
    6.5534   10.5748  -32.3694 C   0  0  0  0  0  0  0  0  0  0  0  0
    6.1544    9.4043  -32.9773 C   0  0  0  0  0  0  0  0  0  0  0  0
    5.9733    9.3329  -34.3647 O   0  0  0  0  0  0  0  0  0  0  0  0
    6.0309   10.4465  -35.1996 C   0  0  0  0  0  0  0  0  0  0  0  0
    6.2692    9.9390  -36.5941 C   0  0  0  0  0  0  0  0  0  0  0  0
    7.4910   10.1272  -37.2196 C   0  0  0  0  0  0  0  0  0  0  0  0
    7.7265    9.6677  -38.4996 C   0  0  0  0  0  0  0  0  0  0  0  0
    6.7553    9.0055  -39.2010 C   0  0  0  0  0  0  0  0  0  0  0  0
    5.5374    8.8158  -38.5824 C   0  0  0  0  0  0  0  0  0  0  0  0
    5.2926    9.2738  -37.2979 C   0  0  0  0  0  0  0  0  0  0  0  0
    5.9336    8.2915  -32.1885 C   0  0  0  0  0  0  0  0  0  0  0  0
    6.1062    8.3414  -30.8221 C   0  0  0  0  0  0  0  0  0  0  0  0
    6.5072    9.5299  -30.2409 C   0  0  0  0  0  0  0  0  0  0  0  0
  1  2  1  0
  2  3  2  0
  3  4  1  0
  4  5  2  0
  4  6  1  0
  6  7  1  0
  7  8  2  0
  8  9  1  0
  9 10  1  0
 10 11  1  0
 11 12  1  0
 12 13  2  0
 13 14  1  0
 14 15  2  0
 15 16  1  0
 16 17  2  0
  9 18  2  0
 18 19  1  0
 19 20  2  0
 20  2  1  0
 20  7  1  0
 17 12  1  0
M  END
$$$$
