
     RDKit          3D

 28 30  0  0  0  0  0  0  0  0999 V2000
  -17.5883   33.1949  -19.1849 C   0  0  0  0  0  0  0  0  0  0  0  0
  -18.7331   32.8147  -19.9840 N   0  0  0  0  0  0  0  0  0  0  0  0
  -19.4054   31.6650  -19.7067 N   0  0  0  0  0  0  0  0  0  0  0  0
  -20.3968   31.4912  -20.5436 C   0  0  0  0  0  0  0  0  0  0  0  0
  -20.3403   32.6032  -21.3979 C   0  0  0  0  0  0  0  0  0  0  0  0
  -21.4881   32.8162  -22.6942 Cl  0  0  0  0  0  0  0  0  0  0  0  0
  -19.2820   33.4332  -21.0317 C   0  0  0  0  0  0  0  0  0  0  0  0
  -18.9237   34.6765  -21.7237 C   0  0  0  0  0  0  0  0  0  0  0  0
  -19.8626   35.7123  -21.8924 C   0  0  0  0  0  0  0  0  0  0  0  0
  -19.2416   36.7578  -22.5569 C   0  0  0  0  0  0  0  0  0  0  0  0
  -19.9395   38.0140  -22.9004 C   0  0  0  0  0  0  0  0  0  0  0  0
  -21.1286   38.1115  -22.5733 O   0  0  0  0  0  0  0  0  0  0  0  0
  -19.3013   39.0711  -23.5716 N   0  0  0  0  0  0  0  0  0  0  0  0
  -19.9947   40.1376  -24.2526 C   0  0  2  0  0  0  0  0  0  0  0  0
  -20.5363   39.6120  -25.5507 C   0  0  0  0  0  0  0  0  0  0  0  0
  -21.9009   39.1454  -25.4353 N   0  0  0  0  0  0  0  0  0  0  0  0
  -19.1598   41.3758  -24.4041 C   0  0  0  0  0  0  0  0  0  0  0  0
  -18.3557   41.5534  -23.1667 C   0  0  0  0  0  0  0  0  0  0  0  0
  -17.1767   40.8545  -22.9521 C   0  0  0  0  0  0  0  0  0  0  0  0
  -16.4471   41.0228  -21.8176 C   0  0  0  0  0  0  0  0  0  0  0  0
  -16.8847   41.9051  -20.8590 C   0  0  0  0  0  0  0  0  0  0  0  0
  -16.1036   42.0281  -19.7398 F   0  0  0  0  0  0  0  0  0  0  0  0
  -18.0449   42.6278  -21.0120 C   0  0  0  0  0  0  0  0  0  0  0  0
  -18.4261   43.4793  -20.0388 F   0  0  0  0  0  0  0  0  0  0  0  0
  -18.7536   42.4266  -22.1769 C   0  0  0  0  0  0  0  0  0  0  0  0
  -18.0459   36.4020  -22.7741 O   0  0  0  0  0  0  0  0  0  0  0  0
  -17.8059   35.1616  -22.2931 C   0  0  0  0  0  0  0  0  0  0  0  0
  -16.2349   34.4473  -22.4652 Cl  0  0  0  0  0  0  0  0  0  0  0  0
  1  2  1  0
  2  3  1  0
  3  4  2  0
  4  5  1  0
  5  6  1  0
  5  7  2  0
  7  8  1  0
  8  9  1  0
  9 10  2  0
 10 11  1  0
 11 12  2  0
 11 13  1  0
 13 14  1  0
 14 15  1  6
 15 16  1  0
 14 17  1  0
 17 18  1  0
 18 19  2  0
 19 20  1  0
 20 21  2  0
 21 22  1  0
 21 23  1  0
 23 24  1  0
 23 25  2  0
 10 26  1  0
 26 27  1  0
 27 28  1  0
  7  2  1  0
 27  8  2  0
 25 18  1  0
M  END
$$$$
