
     RDKit          3D

 19 20  0  0  0  0  0  0  0  0999 V2000
  -16.8748   34.9717  -22.8863 C   0  0  0  0  0  0  0  0  0  0  0  0
  -18.3355   35.2988  -22.6843 C   0  0  0  0  0  0  0  0  0  0  0  0
  -19.3465   34.4532  -22.8881 O   0  0  0  0  0  0  0  0  0  0  0  0
  -20.4807   35.0304  -22.6264 N   0  0  0  0  0  0  0  0  0  0  0  0
  -20.2967   36.2937  -22.2332 C   0  0  0  0  0  0  0  0  0  0  0  0
  -18.9005   36.4662  -22.2721 C   0  0  0  0  0  0  0  0  0  0  0  0
  -18.2507   37.7368  -21.9114 C   0  0  0  0  0  0  0  0  0  0  0  0
  -17.4206   37.7498  -20.9419 O   0  0  0  0  0  0  0  0  0  0  0  0
  -18.4837   38.9540  -22.5819 N   0  0  0  0  0  0  0  0  0  0  0  0
  -18.0928   40.2359  -22.1515 C   0  0  0  0  0  0  0  0  0  0  0  0
  -18.8177   41.3752  -22.1829 C   0  0  0  0  0  0  0  0  0  0  0  0
  -18.3378   42.5917  -21.6948 C   0  0  0  0  0  0  0  0  0  0  0  0
  -17.0991   42.7087  -21.1501 C   0  0  0  0  0  0  0  0  0  0  0  0
  -16.5493   43.9499  -20.5851 C   0  0  0  0  0  0  0  0  0  0  0  0
  -17.0087   44.0465  -19.2756 F   0  0  0  0  0  0  0  0  0  0  0  0
  -15.1747   43.9330  -20.6583 F   0  0  0  0  0  0  0  0  0  0  0  0
  -16.9976   45.0755  -21.2768 F   0  0  0  0  0  0  0  0  0  0  0  0
  -16.3243   41.5489  -21.1054 C   0  0  0  0  0  0  0  0  0  0  0  0
  -16.8144   40.3641  -21.5914 C   0  0  0  0  0  0  0  0  0  0  0  0
  1  2  1  0
  2  3  1  0
  3  4  1  0
  4  5  2  0
  5  6  1  0
  6  7  1  0
  7  8  2  0
  7  9  1  0
  9 10  1  0
 10 11  2  0
 11 12  1  0
 12 13  2  0
 13 14  1  0
 14 15  1  0
 14 16  1  0
 14 17  1  0
 13 18  1  0
 18 19  2  0
  6  2  2  0
 19 10  1  0
M  END
$$$$
