
     RDKit          3D

 29 31  0  0  0  0  0  0  0  0999 V2000
  -21.9025   38.2082  -27.7213 C   0  0  0  0  0  0  0  0  0  0  0  0
  -21.3498   37.0936  -26.8974 C   0  0  0  0  0  0  0  0  0  0  0  0
  -22.4077   36.0881  -26.4920 C   0  0  0  0  0  0  0  0  0  0  0  0
  -20.4367   36.3894  -27.7093 O   0  0  0  0  0  0  0  0  0  0  0  0
  -20.6406   37.5935  -25.6946 C   0  0  0  0  0  0  0  0  0  0  0  0
  -20.4441   38.8907  -25.2739 C   0  0  0  0  0  0  0  0  0  0  0  0
  -19.7559   38.8860  -24.1439 O   0  0  0  0  0  0  0  0  0  0  0  0
  -19.4761   37.6581  -23.7771 C   0  0  0  0  0  0  0  0  0  0  0  0
  -18.5920   37.1270  -22.3651 S   0  0  0  0  0  6  0  0  0  0  0  0
  -18.5201   35.6346  -22.3406 O   0  0  0  0  0  0  0  0  0  0  0  0
  -19.3884   37.5520  -21.1638 O   0  0  0  0  0  0  0  0  0  0  0  0
  -17.0001   37.7408  -22.3430 N   0  0  0  0  0  2  0  0  0  0  0  0
  -16.6353   39.0940  -22.2998 C   0  0  0  0  0  0  0  0  0  0  0  0
  -15.4415   39.3938  -22.6316 O   0  0  0  0  0  0  0  0  0  0  0  0
  -17.4775   40.1528  -21.9200 N   0  0  0  0  0  0  0  0  0  0  0  0
  -17.0754   41.5299  -21.8852 C   0  0  0  0  0  0  0  0  0  0  0  0
  -16.5433   42.0049  -20.7127 C   0  0  0  0  0  0  0  0  0  0  0  0
  -16.1490   43.3031  -20.6359 C   0  0  0  0  0  0  0  0  0  0  0  0
  -16.2877   44.1447  -21.7483 C   0  0  0  0  0  0  0  0  0  0  0  0
  -16.8232   43.6593  -22.9214 C   0  0  0  0  0  0  0  0  0  0  0  0
  -17.2195   42.3443  -22.9911 C   0  0  0  0  0  0  0  0  0  0  0  0
  -17.7534   42.0546  -24.3343 C   0  0  0  0  0  0  0  0  0  0  0  0
  -18.0995   43.4147  -24.8771 C   0  0  0  0  0  0  0  0  0  0  0  0
  -17.0776   44.3489  -24.2369 C   0  0  0  0  0  0  0  0  0  0  0  0
  -15.6128   43.5547  -19.2756 C   0  0  0  0  0  0  0  0  0  0  0  0
  -16.2930   42.4918  -18.4513 C   0  0  0  0  0  0  0  0  0  0  0  0
  -16.3023   41.3010  -19.4027 C   0  0  0  0  0  0  0  0  0  0  0  0
  -20.0250   36.8087  -24.7429 C   0  0  0  0  0  0  0  0  0  0  0  0
  -18.5972   40.2989  -23.3893 Na  0  0  0  0  0 15  0  0  0  0  0  0
  1  2  1  0
  2  3  1  0
  2  4  1  0
  2  5  1  0
  5  6  2  0
  6  7  1  0
  7  8  1  0
  8  9  1  0
  9 10  2  0
  9 11  2  0
  9 12  1  0
 12 13  1  0
 13 14  2  0
 13 15  1  0
 15 16  1  0
 16 17  2  0
 17 18  1  0
 18 19  2  0
 19 20  1  0
 20 21  2  0
 21 22  1  0
 22 23  1  0
 23 24  1  0
 18 25  1  0
 25 26  1  0
 26 27  1  0
  8 28  2  0
 28  5  1  0
 21 16  1  0
 27 17  1  0
 24 20  1  0
M  CHG  2  12  -1  29   1
M  END
$$$$
