
     RDKit          3D

  5  4  0  0  0  0  0  0  0  0999 V2000
  -19.1109   36.9945  -22.1173 C   0  0  0  0  0  0  0  0  0  0  0  0
  -17.6922   35.8871  -21.8973 S   0  0  0  0  0  0  0  0  0  0  0  0
  -18.1799   34.1745  -22.1989 C   0  0  0  0  0  0  0  0  0  0  0  0
  -17.2106   33.3353  -22.3438 N   0  0  0  0  0  0  0  0  0  0  0  0
  -19.5439   33.8253  -22.2635 N   0  0  0  0  0  0  0  0  0  0  0  0
  1  2  1  0
  2  3  1  0
  3  4  2  0
  3  5  1  0
M  END
$$$$
