
     RDKit          3D

 35 37  0  0  0  0  0  0  0  0999 V2000
  -21.2629   -4.3544  -28.9993 C   0  0  0  0  0  0  0  0  0  0  0  0
  -21.6032   -3.0141  -28.8168 O   0  0  0  0  0  0  0  0  0  0  0  0
  -21.4852   -2.0292  -29.7593 C   0  0  0  0  0  0  0  0  0  0  0  0
  -21.0077   -2.2324  -31.0326 C   0  0  0  0  0  0  0  0  0  0  0  0
  -20.9291   -1.1726  -31.9057 C   0  0  0  0  0  0  0  0  0  0  0  0
  -21.3197    0.1125  -31.5427 C   0  0  0  0  0  0  0  0  0  0  0  0
  -21.7912    0.3118  -30.2839 C   0  0  0  0  0  0  0  0  0  0  0  0
  -21.8785   -0.7361  -29.3932 C   0  0  0  0  0  0  0  0  0  0  0  0
  -22.2127    1.7113  -29.8857 C   0  0  0  0  0  0  0  0  0  0  0  0
  -23.5643    1.9749  -30.3982 C   0  0  0  0  0  0  0  0  0  0  0  0
  -24.0051    1.1242  -31.2716 O   0  0  0  0  0  0  0  0  0  0  0  0
  -24.4132    3.0404  -30.0438 N   0  0  0  0  0  0  0  0  0  0  0  0
  -24.1262    3.8822  -28.9279 C   0  0  0  0  0  0  0  0  0  0  0  0
  -24.8643    3.5222  -27.7045 C   0  0  0  0  0  0  0  0  0  0  0  0
  -26.1178    4.0427  -27.4620 C   0  0  0  0  0  0  0  0  0  0  0  0
  -26.7776    3.6900  -26.3041 C   0  0  0  0  0  0  0  0  0  0  0  0
  -26.2439    2.8370  -25.3695 C   0  0  0  0  0  0  0  0  0  0  0  0
  -26.9435    2.4941  -24.1930 N   0  0  0  0  0  0  0  0  0  0  0  0
  -26.3611    1.6003  -23.2337 C   0  0  0  0  0  0  0  0  0  0  0  0
  -28.2506    3.0469  -23.9570 C   0  0  0  0  0  0  0  0  0  0  0  0
  -24.9896    2.3171  -25.6133 C   0  0  0  0  0  0  0  0  0  0  0  0
  -24.3158    2.6715  -26.7859 C   0  0  0  0  0  0  0  0  0  0  0  0
  -25.6197    3.2027  -30.8239 C   0  0  0  0  0  0  0  0  0  0  0  0
  -25.6195    3.9960  -31.9541 C   0  0  0  0  0  0  0  0  0  0  0  0
  -26.7506    4.1750  -32.7234 C   0  0  0  0  0  0  0  0  0  0  0  0
  -27.9385    3.5474  -32.3694 C   0  0  0  0  0  0  0  0  0  0  0  0
  -29.1711    3.7050  -33.1543 C   0  0  0  0  0  0  0  0  0  0  0  0
  -29.6122    5.1506  -33.2484 C   0  0  0  0  0  0  0  0  0  0  0  0
  -28.9722    3.1971  -34.5753 C   0  0  0  0  0  0  0  0  0  0  0  0
  -27.9580    2.7543  -31.2483 C   0  0  0  0  0  0  0  0  0  0  0  0
  -26.8091    2.5932  -30.4963 C   0  0  0  0  0  0  0  0  0  0  0  0
  -21.1773    2.6321  -30.5227 C   0  0  0  0  0  0  0  0  0  0  0  0
  -21.2007    2.5415  -32.0147 C   0  0  0  0  0  0  0  0  0  0  0  0
  -21.1941    1.1588  -32.5587 C   0  0  0  0  0  0  0  0  0  0  0  0
  -24.3177    1.6230  -29.9479 Cl  0  0  0  0  0  0  0  0  0  0  0  0
  1  2  1  0
  2  3  1  0
  3  4  2  0
  4  5  1  0
  5  6  2  0
  6  7  1  0
  7  8  2  0
  7  9  1  0
  9 10  1  0
 10 11  2  0
 10 12  1  0
 12 13  1  0
 13 14  1  0
 14 15  2  0
 15 16  1  0
 16 17  2  0
 17 18  1  0
 18 19  1  0
 18 20  1  0
 17 21  1  0
 21 22  2  0
 12 23  1  0
 23 24  2  0
 24 25  1  0
 25 26  2  0
 26 27  1  0
 27 28  1  0
 27 29  1  0
 26 30  1  0
 30 31  2  0
  9 32  1  0
 32 33  1  0
 33 34  1  0
  8  3  1  0
 22 14  1  0
 31 23  1  0
 34  6  1  0
M  END
$$$$
