
     RDKit          3D

 25 28  0  0  0  0  0  0  0  0999 V2000
  -17.2514   36.7456  -19.6758 N   0  0  0  0  0  0  0  0  0  0  0  0
  -17.6968   36.1108  -20.8619 C   0  0  0  0  0  0  0  0  0  0  0  0
  -17.5957   34.7875  -21.0704 N   0  0  0  0  0  0  0  0  0  0  0  0
  -18.0241   34.2052  -22.2046 C   0  0  0  0  0  0  0  0  0  0  0  0
  -18.5721   34.9712  -23.1623 N   0  0  0  0  0  0  0  0  0  0  0  0
  -18.7171   36.3030  -23.0472 C   0  0  0  0  0  0  0  0  0  0  0  0
  -18.2615   36.8712  -21.8582 C   0  0  0  0  0  0  0  0  0  0  0  0
  -18.5084   38.2023  -21.9663 C   0  0  0  0  0  0  0  0  0  0  0  0
  -18.1978   39.2156  -20.9440 C   0  0  0  0  0  0  0  0  0  0  0  0
  -18.8688   40.4269  -21.2362 O   0  0  0  0  0  0  0  0  0  0  0  0
  -18.1311   41.4007  -21.9361 C   0  0  0  0  0  0  0  0  0  0  0  0
  -18.7398   42.5634  -22.3452 C   0  0  0  0  0  0  0  0  0  0  0  0
  -18.0046   43.5186  -23.0351 C   0  0  0  0  0  0  0  0  0  0  0  0
  -16.6814   43.3167  -23.3126 C   0  0  0  0  0  0  0  0  0  0  0  0
  -16.0358   42.1595  -22.9170 C   0  0  0  0  0  0  0  0  0  0  0  0
  -14.3402   41.9284  -23.2862 Cl  0  0  0  0  0  0  0  0  0  0  0  0
  -16.8025   41.2388  -22.2354 C   0  0  0  0  0  0  0  0  0  0  0  0
  -19.0785   38.4017  -23.1564 N   0  0  0  0  0  0  0  0  0  0  0  0
  -19.2211   37.2782  -23.8380 N   0  0  0  0  0  0  0  0  0  0  0  0
  -19.7973   37.0916  -25.1630 C   0  0  0  0  0  0  0  0  0  0  0  0
  -19.8901   38.3861  -25.9262 C   0  0  0  0  0  0  0  0  0  0  0  0
  -20.3092   38.0711  -27.3426 C   0  0  0  0  0  0  0  0  0  0  0  0
  -21.2889   37.1001  -27.4076 O   0  0  0  0  0  0  0  0  0  0  0  0
  -22.0274   37.0091  -26.2312 C   0  0  0  0  0  0  0  0  0  0  0  0
  -21.2060   36.5298  -25.0687 C   0  0  0  0  0  0  0  0  0  0  0  0
  1  2  1  0
  2  3  2  0
  3  4  1  0
  4  5  2  0
  5  6  1  0
  6  7  2  0
  7  8  1  0
  8  9  1  0
  9 10  1  0
 10 11  1  0
 11 12  2  0
 12 13  1  0
 13 14  2  0
 14 15  1  0
 15 16  1  0
 15 17  2  0
  8 18  2  0
 18 19  1  0
 19 20  1  0
 20 21  1  0
 21 22  1  0
 22 23  1  0
 23 24  1  0
 24 25  1  0
  7  2  1  0
 17 11  1  0
 25 20  1  0
 19  6  1  0
M  END
$$$$
