
     RDKit          3D

 32 36  0  0  0  0  0  0  0  0999 V2000
  -22.4415   24.5532  -33.8551 C   0  0  0  0  0  0  0  0  0  0  0  0
  -23.8348   24.8196  -33.7977 O   0  0  0  0  0  0  0  0  0  0  0  0
  -24.4767   25.2057  -34.9618 C   0  0  0  0  0  0  0  0  0  0  0  0
  -24.9389   26.4844  -35.1631 C   0  0  0  0  0  0  0  0  0  0  0  0
  -25.5813   26.8823  -36.3205 C   0  0  0  0  0  0  0  0  0  0  0  0
  -26.0549   28.2213  -36.5049 N   0  0  0  0  0  0  0  0  0  0  0  0
  -27.3925   28.3836  -37.0344 C   0  0  0  0  0  0  0  0  0  0  0  0
  -27.5945   29.8042  -37.5579 C   0  0  0  0  0  0  0  0  0  0  0  0
  -27.2078   30.7540  -36.4732 C   0  0  0  0  0  0  0  0  0  0  0  0
  -27.4124   32.1170  -36.9883 N   0  0  0  0  0  0  0  0  0  0  0  0
  -25.7769   30.6436  -36.0666 C   0  0  0  0  0  0  0  0  0  0  0  0
  -25.1754   29.2864  -36.1526 C   0  0  0  0  0  0  0  0  0  0  0  0
  -25.7463   25.9243  -37.2922 C   0  0  0  0  0  0  0  0  0  0  0  0
  -25.2922   24.6073  -37.1332 C   0  0  0  0  0  0  0  0  0  0  0  0
  -24.6606   24.2483  -35.9747 C   0  0  0  0  0  0  0  0  0  0  0  0
  -24.1775   22.9529  -35.7426 N   0  0  0  0  0  0  0  0  0  0  0  0
  -23.6135   22.0982  -36.7053 C   0  0  0  0  0  0  0  0  0  0  0  0
  -23.3134   20.8149  -36.5358 N   0  0  0  0  0  0  0  0  0  0  0  0
  -22.7796   20.0444  -37.4805 C   0  0  0  0  0  0  0  0  0  0  0  0
  -22.5222   20.6394  -38.7323 C   0  0  0  0  0  0  0  0  0  0  0  0
  -21.8329   19.6128  -39.9273 Cl  0  0  0  0  0  0  0  0  0  0  0  0
  -22.8131   21.9545  -38.9553 C   0  0  0  0  0  0  0  0  0  0  0  0
  -22.5768   22.6498  -40.2302 C   0  0  0  0  0  0  0  0  0  0  0  0
  -22.9561   23.8998  -40.6371 C   0  0  0  0  0  0  0  0  0  0  0  0
  -22.5226   24.1442  -41.9087 N   0  0  0  0  0  0  0  0  0  0  0  0
  -21.8680   23.0460  -42.3055 C   0  0  0  0  0  0  0  0  0  0  0  0
  -21.2273   22.7711  -43.5240 C   0  0  0  0  0  0  0  0  0  0  0  0
  -20.6295   21.5665  -43.6769 C   0  0  0  0  0  0  0  0  0  0  0  0
  -20.6340   20.6194  -42.6833 C   0  0  0  0  0  0  0  0  0  0  0  0
  -21.2582   20.8673  -41.4754 C   0  0  0  0  0  0  0  0  0  0  0  0
  -21.8717   22.0968  -41.3115 C   0  0  0  0  0  0  0  0  0  0  0  0
  -23.3462   22.6322  -37.9363 N   0  0  0  0  0  0  0  0  0  0  0  0
  1  2  1  0
  2  3  1  0
  3  4  2  0
  4  5  1  0
  5  6  1  0
  6  7  1  0
  7  8  1  0
  8  9  1  0
  9 10  1  0
  9 11  1  0
 11 12  1  0
  5 13  2  0
 13 14  1  0
 14 15  2  0
 15 16  1  0
 16 17  1  0
 17 18  2  0
 18 19  1  0
 19 20  2  0
 20 21  1  0
 20 22  1  0
 22 23  1  0
 23 24  2  0
 24 25  1  0
 25 26  1  0
 26 27  2  0
 27 28  1  0
 28 29  2  0
 29 30  1  0
 30 31  2  0
 22 32  2  0
 15  3  1  0
 32 17  1  0
 12  6  1  0
 31 23  1  0
 31 26  1  0
M  END
$$$$
