
     RDKit          3D

 26 27  0  0  0  0  0  0  0  0999 V2000
  -21.8081    1.1690  -36.0269 C   0  0  0  0  0  0  0  0  0  0  0  0
  -20.6823    1.6098  -35.3114 O   0  0  0  0  0  0  0  0  0  0  0  0
  -20.2610    0.9914  -34.1456 C   0  0  0  0  0  0  0  0  0  0  0  0
  -21.1800    0.6175  -33.1855 C   0  0  0  0  0  0  0  0  0  0  0  0
  -20.7289    0.0044  -32.0367 C   0  0  0  0  0  0  0  0  0  0  0  0
  -21.6503   -0.3928  -31.0312 N   0  0  0  0  0  0  0  0  0  0  0  0
  -21.1859   -0.9213  -29.7750 C   0  0  0  0  0  0  0  0  0  0  0  0
  -23.0773   -0.2758  -31.2420 C   0  0  0  0  0  0  0  0  0  0  0  0
  -19.3623   -0.2260  -31.8652 C   0  0  0  0  0  0  0  0  0  0  0  0
  -18.4291    0.1406  -32.8136 C   0  0  0  0  0  0  0  0  0  0  0  0
  -16.9861   -0.0883  -32.6658 C   0  0  0  0  0  0  0  0  0  0  0  0
  -16.4694   -1.1191  -33.5432 N   0  0  0  0  0  0  0  0  0  0  0  0
  -16.3747   -2.3983  -32.8671 C   0  0  0  0  0  0  0  0  0  0  0  0
  -15.0987   -0.7133  -33.8586 C   0  0  0  0  0  0  0  0  0  0  0  0
  -14.3614   -0.3478  -32.5826 C   0  0  0  0  0  0  0  0  0  0  0  0
  -12.9850    0.0764  -32.8751 C   0  0  0  0  0  0  0  0  0  0  0  0
  -11.9041   -0.6707  -32.4567 C   0  0  0  0  0  0  0  0  0  0  0  0
  -10.6214   -0.2169  -32.7659 C   0  0  0  0  0  0  0  0  0  0  0  0
  -10.4208    0.9490  -33.4725 C   0  0  0  0  0  0  0  0  0  0  0  0
   -9.0969    1.3972  -33.7798 N   0  0  0  0  0  4  0  0  0  0  0  0
   -8.9135    2.4050  -34.4854 O   0  0  0  0  0  0  0  0  0  0  0  0
   -8.0112    0.7190  -33.2989 O   0  0  0  0  0  1  0  0  0  0  0  0
  -11.5185    1.6765  -33.8787 C   0  0  0  0  0  0  0  0  0  0  0  0
  -12.7948    1.2461  -33.5838 C   0  0  0  0  0  0  0  0  0  0  0  0
  -18.9055    0.7520  -33.9534 C   0  0  0  0  0  0  0  0  0  0  0  0
  -17.9832    1.1283  -34.9192 O   0  0  0  0  0  0  0  0  0  0  0  0
  1  2  1  0
  2  3  1  0
  3  4  2  0
  4  5  1  0
  5  6  1  0
  6  7  1  0
  6  8  1  0
  5  9  2  0
  9 10  1  0
 10 11  1  0
 11 12  1  0
 12 13  1  0
 12 14  1  0
 14 15  1  0
 15 16  1  0
 16 17  2  0
 17 18  1  0
 18 19  2  0
 19 20  1  0
 20 21  2  0
 20 22  1  0
 19 23  1  0
 23 24  2  0
 10 25  2  0
 25 26  1  0
 25  3  1  0
 24 16  1  0
M  CHG  2  20   1  22  -1
M  END
$$$$
