
     RDKit          3D

 13 14  0  0  0  0  0  0  0  0999 V2000
  -17.6230   39.5305  -22.0435 N   0  0  0  0  0  0  0  0  0  0  0  0
  -17.8798   38.2202  -22.6499 C   0  0  1  0  0  0  0  0  0  0  0  0
  -17.0166   37.2263  -21.9435 C   0  0  0  0  0  0  0  0  0  0  0  0
  -17.5812   35.8543  -21.9355 C   0  0  0  0  0  0  0  0  0  0  0  0
  -16.7219   34.8144  -21.6526 C   0  0  0  0  0  0  0  0  0  0  0  0
  -17.1439   33.4966  -21.6191 C   0  0  0  0  0  0  0  0  0  0  0  0
  -18.4719   33.2318  -21.8796 C   0  0  0  0  0  0  0  0  0  0  0  0
  -19.3302   34.2729  -22.1623 C   0  0  0  0  0  0  0  0  0  0  0  0
  -18.8974   35.5791  -22.1925 C   0  0  0  0  0  0  0  0  0  0  0  0
  -19.8121   36.6263  -22.4879 N   0  0  0  0  0  0  0  0  0  0  0  0
  -21.1201   36.3994  -22.7477 O   0  0  0  0  0  0  0  0  0  0  0  0
  -19.3234   37.9545  -22.5081 C   0  0  0  0  0  0  0  0  0  0  0  0
  -20.1425   38.9242  -22.4024 O   0  0  0  0  0  0  0  0  0  0  0  0
  2  1  1  1
  2  3  1  0
  3  4  1  0
  4  5  2  0
  5  6  1  0
  6  7  2  0
  7  8  1  0
  8  9  2  0
  9 10  1  0
 10 11  1  0
 10 12  1  0
 12 13  2  0
 12  2  1  0
  9  4  1  0
M  END
$$$$
