
     RDKit          3D

 29 32  0  0  0  0  0  0  0  0999 V2000
  -17.8021   22.3227  -32.3494 C   0  0  0  0  0  0  0  0  0  0  0  0
  -18.7806   21.1889  -32.3240 C   0  0  0  0  0  0  0  0  0  0  0  0
  -20.2021   21.6882  -32.5979 C   0  0  0  0  0  0  0  0  0  0  0  0
  -20.8339   22.3033  -33.3488 N   0  0  0  0  0  0  0  0  0  0  0  0
  -22.1186   22.5886  -33.3286 C   0  0  0  0  0  0  0  0  0  0  0  0
  -22.7661   23.3938  -34.3950 C   0  0  0  0  0  0  0  0  0  0  0  0
  -22.3455   24.6594  -34.7315 C   0  0  0  0  0  0  0  0  0  0  0  0
  -22.9280   25.4106  -35.7137 C   0  0  0  0  0  0  0  0  0  0  0  0
  -23.9882   24.8998  -36.4148 C   0  0  0  0  0  0  0  0  0  0  0  0
  -24.4466   23.6372  -36.1157 C   0  0  0  0  0  0  0  0  0  0  0  0
  -25.5982   23.0739  -36.8787 C   0  0  0  0  0  0  0  0  0  0  0  0
  -23.8431   22.8888  -35.1156 C   0  0  0  0  0  0  0  0  0  0  0  0
  -22.8210   22.1024  -32.2886 C   0  0  0  0  0  0  0  0  0  0  0  0
  -24.1865   22.1592  -31.8568 C   0  0  0  0  0  0  0  0  0  0  0  0
  -24.9673   23.2498  -32.1395 C   0  0  0  0  0  0  0  0  0  0  0  0
  -26.3004   23.2588  -31.7120 C   0  0  0  0  0  0  0  0  0  0  0  0
  -26.7735   22.1974  -31.0374 N   0  0  0  0  0  0  0  0  0  0  0  0
  -26.0585   21.1170  -30.7381 C   0  0  0  0  0  0  0  0  0  0  0  0
  -26.6407   20.0286  -30.0355 N   0  0  0  0  0  0  0  0  0  0  0  0
  -25.9782   19.1146  -29.2177 C   0  0  0  0  0  0  0  0  0  0  0  0
  -24.7101   19.1824  -29.1718 O   0  0  0  0  0  0  0  0  0  0  0  0
  -26.6217   18.0807  -28.4052 C   0  0  0  0  0  0  0  0  0  0  0  0
  -28.0061   18.0262  -28.3385 C   0  0  0  0  0  0  0  0  0  0  0  0
  -28.6485   17.0742  -27.5818 C   0  0  0  0  0  0  0  0  0  0  0  0
  -27.8793   16.1687  -26.8857 C   0  0  0  0  0  0  0  0  0  0  0  0
  -26.4930   16.1962  -26.9312 C   0  0  0  0  0  0  0  0  0  0  0  0
  -25.8795   17.1576  -27.6951 C   0  0  0  0  0  0  0  0  0  0  0  0
  -24.7232   21.0988  -31.1613 C   0  0  0  0  0  0  0  0  0  0  0  0
  -21.5190   21.2079  -31.3393 S   0  0  0  0  0  0  0  0  0  0  0  0
  1  2  1  0
  2  3  1  0
  3  4  2  0
  4  5  1  0
  5  6  1  0
  6  7  2  0
  7  8  1  0
  8  9  2  0
  9 10  1  0
 10 11  1  0
 10 12  2  0
  5 13  2  0
 13 14  1  0
 14 15  2  0
 15 16  1  0
 16 17  2  0
 17 18  1  0
 18 19  1  0
 19 20  1  0
 20 21  2  0
 20 22  1  0
 22 23  2  0
 23 24  1  0
 24 25  2  0
 25 26  1  0
 26 27  2  0
 18 28  2  0
 13 29  1  0
 29  3  1  0
 12  6  1  0
 28 14  1  0
 27 22  1  0
M  END
$$$$
