
     RDKit          3D

 34 38  0  0  0  0  0  0  0  0999 V2000
  -19.0400   32.6461  -20.6269 C   0  0  0  0  0  0  0  0  0  0  0  0
  -18.0623   33.5805  -20.9805 O   0  0  0  0  0  0  0  0  0  0  0  0
  -18.4742   34.7734  -21.5935 C   0  0  0  0  0  0  0  0  0  0  0  0
  -17.5563   35.6908  -22.0675 C   0  0  0  0  0  0  0  0  0  0  0  0
  -17.9533   36.8640  -22.6704 C   0  0  0  0  0  0  0  0  0  0  0  0
  -19.2832   37.1825  -22.8313 C   0  0  0  0  0  0  0  0  0  0  0  0
  -19.7530   38.3717  -23.4422 N   0  0  0  0  0  0  0  0  0  0  0  0
  -20.5604   38.5481  -24.4740 N   0  0  0  0  0  0  0  0  0  0  0  0
  -20.7409   39.8643  -24.7169 C   0  0  0  0  0  0  0  0  0  0  0  0
  -21.5689   40.4237  -25.7785 C   0  0  0  0  0  0  0  0  0  0  0  0
  -22.3363   39.5717  -26.6185 N   0  0  0  0  0  0  0  0  0  0  0  0
  -21.6141   41.6647  -25.9637 O   0  0  0  0  0  0  0  0  0  0  0  0
  -20.0077   40.5603  -23.7884 C   0  0  0  0  0  0  0  0  0  0  0  0
  -19.4029   39.6086  -23.0077 C   0  0  0  0  0  0  0  0  0  0  0  0
  -18.5424   40.0229  -21.9157 C   0  0  0  0  0  0  0  0  0  0  0  0
  -17.9706   39.1743  -21.1780 O   0  0  0  0  0  0  0  0  0  0  0  0
  -18.3523   41.4126  -21.6883 N   0  0  0  0  0  0  0  0  0  0  0  0
  -17.1683   41.8709  -21.0458 C   0  0  0  0  0  0  0  0  0  0  0  0
  -15.9528   41.3939  -21.4911 C   0  0  0  0  0  0  0  0  0  0  0  0
  -14.7702   41.8208  -20.8855 C   0  0  0  0  0  0  0  0  0  0  0  0
  -14.7806   42.7187  -19.8394 C   0  0  0  0  0  0  0  0  0  0  0  0
  -13.5880   43.1634  -19.2121 N   0  0  0  0  0  0  0  0  0  0  0  0
  -12.6868   44.0325  -19.9424 C   0  0  0  0  0  0  0  0  0  0  0  0
  -12.1369   45.0986  -19.0540 C   0  0  0  0  0  0  0  0  0  0  0  0
  -11.5037   44.6034  -17.7989 C   0  0  0  0  0  0  0  0  0  0  0  0
  -11.8300   43.1736  -17.4663 C   0  0  0  0  0  0  0  0  0  0  0  0
  -13.2106   42.8061  -17.8892 C   0  0  0  0  0  0  0  0  0  0  0  0
  -14.0282   42.2184  -17.1633 O   0  0  0  0  0  0  0  0  0  0  0  0
  -16.0089   43.1797  -19.4138 C   0  0  0  0  0  0  0  0  0  0  0  0
  -17.1941   42.7652  -20.0053 C   0  0  0  0  0  0  0  0  0  0  0  0
  -19.3992   42.3044  -22.1339 C   0  0  0  0  0  0  0  0  0  0  0  0
  -19.8176   42.0107  -23.5585 C   0  0  0  0  0  0  0  0  0  0  0  0
  -20.1901   36.2584  -22.3539 C   0  0  0  0  0  0  0  0  0  0  0  0
  -19.8080   35.0810  -21.7488 C   0  0  0  0  0  0  0  0  0  0  0  0
  1  2  1  0
  2  3  1  0
  3  4  2  0
  4  5  1  0
  5  6  2  0
  6  7  1  0
  7  8  1  0
  8  9  2  0
  9 10  1  0
 10 11  1  0
 10 12  2  0
  9 13  1  0
 13 14  2  0
 14 15  1  0
 15 16  2  0
 15 17  1  0
 17 18  1  0
 18 19  2  0
 19 20  1  0
 20 21  2  0
 21 22  1  0
 22 23  1  0
 23 24  1  0
 24 25  1  0
 25 26  1  0
 26 27  1  0
 27 28  2  0
 21 29  1  0
 29 30  2  0
 17 31  1  0
 31 32  1  0
  6 33  1  0
 33 34  2  0
 34  3  1  0
 14  7  1  0
 30 18  1  0
 32 13  1  0
 27 22  1  0
M  END
$$$$
