
     RDKit          3D

 15 17  0  0  0  0  0  0  0  0999 V2000
  -12.4384   13.3726  -30.5287 Cl  0  0  0  0  0  0  0  0  0  0  0  0
  -13.6900   14.3194  -31.2917 C   0  0  0  0  0  0  0  0  0  0  0  0
  -13.3002   15.4625  -31.9614 C   0  0  0  0  0  0  0  0  0  0  0  0
  -14.3113   16.1927  -32.5559 C   0  0  0  0  0  0  0  0  0  0  0  0
  -15.6182   15.8586  -32.5181 C   0  0  0  0  0  0  0  0  0  0  0  0
  -16.0174   14.7312  -31.8596 C   0  0  0  0  0  0  0  0  0  0  0  0
  -15.0205   13.9582  -31.2399 C   0  0  0  0  0  0  0  0  0  0  0  0
  -17.3618   14.3391  -31.7900 N   0  0  0  0  0  0  0  0  0  0  0  0
  -18.4688   14.9993  -32.3531 C   0  0  0  0  0  0  0  0  0  0  0  0
  -19.7571   14.4699  -32.1895 C   0  0  0  0  0  0  0  0  0  0  0  0
  -20.8719   15.0692  -32.7153 C   0  0  0  0  0  0  0  0  0  0  0  0
  -20.7584   16.2462  -33.4429 C   0  0  0  0  0  0  0  0  0  0  0  0
  -19.4925   16.7707  -33.6063 C   0  0  0  0  0  0  0  0  0  0  0  0
  -18.3894   16.1623  -33.0764 C   0  0  0  0  0  0  0  0  0  0  0  0
  -16.7864   16.9145  -33.3389 S   0  0  0  0  0  0  0  0  0  0  0  0
  1  2  1  0
  2  3  2  0
  3  4  1  0
  4  5  2  0
  5  6  1  0
  6  7  2  0
  6  8  1  0
  8  9  1  0
  9 10  2  0
 10 11  1  0
 11 12  2  0
 12 13  1  0
 13 14  2  0
 14 15  1  0
  7  2  1  0
 14  9  1  0
 15  5  1  0
M  END
$$$$
