
     RDKit          3D

 20 20  0  0  0  0  0  0  0  0999 V2000
  -19.9143   46.4404  -22.1647 C   0  0  0  0  0  0  0  0  0  0  0  0
  -18.6640   45.6840  -21.9919 C   0  0  0  0  0  0  0  0  0  0  0  0
  -17.5456   46.2965  -21.4778 C   0  0  0  0  0  0  0  0  0  0  0  0
  -16.3728   45.6091  -21.3096 C   0  0  0  0  0  0  0  0  0  0  0  0
  -16.3225   44.2724  -21.6670 C   0  0  0  0  0  0  0  0  0  0  0  0
  -14.7921   43.4550  -21.4252 Cl  0  0  0  0  0  0  0  0  0  0  0  0
  -17.4188   43.6253  -22.1839 C   0  0  0  0  0  0  0  0  0  0  0  0
  -17.3320   42.2202  -22.5492 N   0  0  0  0  0  0  0  0  0  0  0  0
  -17.6468   41.2487  -21.5617 C   0  0  0  0  0  0  0  0  0  0  0  0
  -18.0253   41.7048  -20.2844 C   0  0  0  0  0  0  0  0  0  0  0  0
  -18.3465   40.8399  -19.2696 C   0  0  0  0  0  0  0  0  0  0  0  0
  -18.2858   39.4970  -19.5453 C   0  0  0  0  0  0  0  0  0  0  0  0
  -17.9190   39.0372  -20.7843 C   0  0  0  0  0  0  0  0  0  0  0  0
  -17.5857   39.9139  -21.8382 C   0  0  0  0  0  0  0  0  0  0  0  0
  -17.2064   39.4090  -23.1209 C   0  0  0  0  0  0  0  0  0  0  0  0
  -17.1931   38.1170  -23.2368 O   0  0  0  0  0  0  0  0  0  0  0  0
  -16.8525   40.0668  -24.2551 O   0  0  0  0  0  1  0  0  0  0  0  0
  -18.5756   44.3547  -22.3355 C   0  0  0  0  0  0  0  0  0  0  0  0
  -20.0096   43.5668  -22.9954 Cl  0  0  0  0  0  0  0  0  0  0  0  0
  -17.9316   42.8140  -21.5301 Na  0  0  0  0  0 15  0  0  0  0  0  0
  1  2  1  0
  2  3  2  0
  3  4  1  0
  4  5  2  0
  5  6  1  0
  5  7  1  0
  7  8  1  0
  8  9  1  0
  9 10  2  0
 10 11  1  0
 11 12  2  0
 12 13  1  0
 13 14  2  0
 14 15  1  0
 15 16  2  0
 15 17  1  0
  7 18  2  0
 18 19  1  0
 18  2  1  0
 14  9  1  0
M  CHG  2  17  -1  20   1
M  END
$$$$
