
     RDKit          3D

 12 12  0  0  0  0  0  0  0  0999 V2000
  -19.6480   37.1349  -24.7094 N   0  0  0  0  0  0  0  0  0  0  0  0
  -19.7310   37.7786  -23.4157 C   0  0  0  0  0  0  0  0  0  0  0  0
  -18.3512   37.6730  -22.7740 C   0  0  0  0  0  0  0  0  0  0  0  0
  -17.9839   36.2132  -22.8391 C   0  0  0  0  0  0  0  0  0  0  0  0
  -18.3017   35.4739  -21.6138 C   0  0  0  0  0  0  0  0  0  0  0  0
  -17.6190   35.2777  -20.6094 O   0  0  0  0  0  0  0  0  0  0  0  0
  -19.5991   34.8913  -21.5870 O   0  0  0  0  0  0  0  0  0  0  0  0
  -17.3702   38.4604  -23.5886 C   0  0  0  0  0  0  0  0  0  0  0  0
  -17.3059   39.9154  -23.2966 C   0  0  0  0  0  0  0  0  0  0  0  0
  -18.2557   40.4580  -22.3051 C   0  0  0  0  0  0  0  0  0  0  0  0
  -18.7199   39.5503  -21.2358 C   0  0  0  0  0  0  0  0  0  0  0  0
  -18.3070   38.1229  -21.3610 C   0  0  0  0  0  0  0  0  0  0  0  0
  1  2  1  0
  2  3  1  0
  3  4  1  0
  4  5  1  0
  5  6  2  0
  5  7  1  0
  3  8  1  0
  8  9  1  0
  9 10  1  0
 10 11  1  0
 11 12  1  0
 12  3  1  0
M  END
$$$$
