
     RDKit          3D

 24 27  0  0  0  0  0  0  0  0999 V2000
  -16.6804   36.1645  -23.3501 N   0  0  0  0  0  0  0  0  0  0  0  0
  -17.9914   36.7622  -23.2998 C   0  0  0  0  0  0  0  0  0  0  0  0
  -19.0919   35.8632  -23.6889 C   0  0  0  0  0  0  0  0  0  0  0  0
  -19.6470   34.9590  -22.7070 C   0  0  0  0  0  0  0  0  0  0  0  0
  -20.7769   35.2672  -21.9652 C   0  0  0  0  0  0  0  0  0  0  0  0
  -21.2963   34.4008  -21.0264 C   0  0  0  0  0  0  0  0  0  0  0  0
  -20.7031   33.1787  -20.7871 C   0  0  0  0  0  0  0  0  0  0  0  0
  -21.3704   32.0800  -19.5895 Cl  0  0  0  0  0  0  0  0  0  0  0  0
  -19.5801   32.8602  -21.5169 C   0  0  0  0  0  0  0  0  0  0  0  0
  -19.0507   33.7382  -22.4707 C   0  0  0  0  0  0  0  0  0  0  0  0
  -18.1797   37.4250  -21.9635 C   0  0  0  0  0  0  0  0  0  0  0  0
  -18.9064   38.7540  -22.1008 C   0  0  0  0  0  0  0  0  0  0  0  0
  -17.9232   39.6879  -22.7093 N   0  0  0  0  0  0  0  0  0  0  0  0
  -17.8515   40.9910  -22.2145 C   0  0  0  0  0  0  0  0  0  0  0  0
  -17.6114   41.9863  -23.1280 N   0  0  0  0  0  0  0  0  0  0  0  0
  -17.5009   43.2542  -22.7279 C   0  0  0  0  0  0  0  0  0  0  0  0
  -17.6292   43.5326  -21.4196 N   0  0  0  0  0  0  0  0  0  0  0  0
  -17.8619   42.6160  -20.4903 C   0  0  0  0  0  0  0  0  0  0  0  0
  -18.0319   42.6458  -19.1651 N   0  0  0  0  0  0  0  0  0  0  0  0
  -18.2533   41.4202  -18.6858 C   0  0  0  0  0  0  0  0  0  0  0  0
  -18.2295   40.5346  -19.7387 C   0  0  0  0  0  0  0  0  0  0  0  0
  -17.9841   41.2722  -20.8752 C   0  0  0  0  0  0  0  0  0  0  0  0
  -17.1784   39.1003  -23.7806 C   0  0  0  0  0  0  0  0  0  0  0  0
  -17.9700   37.8999  -24.3333 C   0  0  0  0  0  0  0  0  0  0  0  0
  1  2  1  0
  2  3  1  0
  3  4  1  0
  4  5  2  0
  5  6  1  0
  6  7  2  0
  7  8  1  0
  7  9  1  0
  9 10  2  0
  2 11  1  0
 11 12  1  0
 12 13  1  0
 13 14  1  0
 14 15  2  0
 15 16  1  0
 16 17  2  0
 17 18  1  0
 18 19  1  0
 19 20  1  0
 20 21  2  0
 21 22  1  0
 13 23  1  0
 23 24  1  0
 24  2  1  0
 10  4  1  0
 22 14  1  0
 22 18  2  0
M  END
$$$$
