
     RDKit          3D

 24 26  0  0  0  0  0  0  0  0999 V2000
   -9.4799   -1.8051  -16.1430 C   0  0  0  0  0  0  0  0  0  0  0  0
   -9.7955   -0.4086  -15.7512 C   0  0  0  0  0  0  0  0  0  0  0  0
  -10.6597   -0.0423  -14.8540 O   0  0  0  0  0  0  0  0  0  0  0  0
  -10.6675    1.2519  -14.7777 N   0  0  0  0  0  0  0  0  0  0  0  0
   -9.7677    1.7872  -15.6645 C   0  0  0  0  0  0  0  0  0  0  0  0
   -9.5571    3.1980  -15.7943 C   0  0  0  0  0  0  0  0  0  0  0  0
   -9.8324    3.8740  -16.9839 C   0  0  0  0  0  0  0  0  0  0  0  0
   -9.6391    5.2276  -17.0560 C   0  0  0  0  0  0  0  0  0  0  0  0
   -9.1795    5.9609  -15.9955 C   0  0  0  0  0  0  0  0  0  0  0  0
   -8.9169    5.2574  -14.8333 C   0  0  0  0  0  0  0  0  0  0  0  0
   -9.0896    3.9006  -14.6960 C   0  0  0  0  0  0  0  0  0  0  0  0
   -8.7231    3.0628  -13.1750 Cl  0  0  0  0  0  0  0  0  0  0  0  0
   -9.2085    0.7060  -16.2904 C   0  0  0  0  0  0  0  0  0  0  0  0
   -8.1883    0.6820  -17.3186 C   0  0  0  0  0  0  0  0  0  0  0  0
   -6.9659    0.7582  -16.9450 O   0  0  0  0  0  0  0  0  0  0  0  0
   -8.4239    0.5788  -18.6954 N   0  0  0  0  0  0  0  0  0  0  0  0
   -7.3356    0.4987  -19.6462 C   0  0  0  0  0  0  0  0  0  0  0  0
   -9.7255    0.5378  -19.2171 C   0  0  0  0  0  0  0  0  0  0  0  0
  -10.4191    1.6169  -19.6989 C   0  0  0  0  0  0  0  0  0  0  0  0
  -11.7011    1.4326  -20.2010 C   0  0  0  0  0  0  0  0  0  0  0  0
  -12.3173    0.2023  -20.2394 C   0  0  0  0  0  0  0  0  0  0  0  0
  -13.9288    0.0038  -20.8754 Cl  0  0  0  0  0  0  0  0  0  0  0  0
  -11.6208   -0.8820  -19.7550 C   0  0  0  0  0  0  0  0  0  0  0  0
  -10.3551   -0.6939  -19.2598 C   0  0  0  0  0  0  0  0  0  0  0  0
  1  2  1  0
  2  3  1  0
  3  4  1  0
  4  5  2  0
  5  6  1  0
  6  7  2  0
  7  8  1  0
  8  9  2  0
  9 10  1  0
 10 11  2  0
 11 12  1  0
  5 13  1  0
 13 14  1  0
 14 15  2  0
 14 16  1  0
 16 17  1  0
 16 18  1  0
 18 19  2  0
 19 20  1  0
 20 21  2  0
 21 22  1  0
 21 23  1  0
 23 24  2  0
 13  2  2  0
 24 18  1  0
 11  6  1  0
M  END
$$$$
