
     RDKit          3D

 21 23  0  0  0  0  0  0  0  0999 V2000
  -12.7752   -4.3037  -35.2071 O   0  0  0  0  0  0  0  0  0  0  0  0
  -12.5768   -3.2646  -34.5574 C   0  0  0  0  0  0  0  0  0  0  0  0
  -11.3152   -2.7021  -34.1970 N   0  0  0  0  0  0  0  0  0  0  0  0
  -11.5370   -1.5137  -33.4626 C   0  0  0  0  0  0  0  0  0  0  0  0
  -10.6950   -0.5729  -32.8707 C   0  0  0  0  0  0  0  0  0  0  0  0
  -11.1885    0.5096  -32.2031 C   0  0  0  0  0  0  0  0  0  0  0  0
  -12.5417    0.7181  -32.0863 C   0  0  0  0  0  0  0  0  0  0  0  0
  -13.3251    2.3864  -31.0565 I   0  0  0  0  0  0  0  0  0  0  0  0
  -13.3806   -0.2002  -32.6644 C   0  0  0  0  0  0  0  0  0  0  0  0
  -12.8898   -1.2914  -33.3373 C   0  0  0  0  0  0  0  0  0  0  0  0
  -13.6109   -2.3951  -34.0271 C   0  0  0  0  0  0  0  0  0  0  0  0
  -14.9151   -2.5468  -34.1031 C   0  0  0  0  0  0  0  0  0  0  0  0
  -15.8066   -2.3110  -32.9870 C   0  0  0  0  0  0  0  0  0  0  0  0
  -15.3578   -2.3203  -31.6890 C   0  0  0  0  0  0  0  0  0  0  0  0
  -16.2466   -2.1279  -30.6634 C   0  0  0  0  0  0  0  0  0  0  0  0
  -15.5687   -2.1515  -28.8737 Br  0  0  0  0  0  0  0  0  0  0  0  0
  -17.5646   -1.9289  -30.9511 C   0  0  0  0  0  0  0  0  0  0  0  0
  -18.4439   -1.7363  -29.8874 O   0  0  0  0  0  0  0  0  0  0  0  0
  -18.0548   -1.9112  -32.2392 C   0  0  0  0  0  0  0  0  0  0  0  0
  -19.9204   -1.6261  -32.5903 Br  0  0  0  0  0  0  0  0  0  0  0  0
  -17.1443   -2.1072  -33.2565 C   0  0  0  0  0  0  0  0  0  0  0  0
  1  2  2  0
  2  3  1  0
  3  4  1  0
  4  5  2  0
  5  6  1  0
  6  7  2  0
  7  8  1  0
  7  9  1  0
  9 10  2  0
 10 11  1  0
 11 12  2  0
 12 13  1  0
 13 14  2  0
 14 15  1  0
 15 16  1  0
 15 17  2  0
 17 18  1  0
 17 19  1  0
 19 20  1  0
 19 21  2  0
 11  2  1  0
 21 13  1  0
 10  4  1  0
M  END
$$$$
