
     RDKit          3D

 28 29  0  0  0  0  0  0  0  0999 V2000
  -23.1283   22.2522  -40.0250 C   0  0  0  0  0  0  0  0  0  0  0  0
  -22.1658   21.9737  -41.0958 C   0  0  0  0  0  0  0  0  0  0  0  0
  -22.6700   21.9258  -42.3997 C   0  0  0  0  0  0  0  0  0  0  0  0
  -21.8379   21.7083  -43.4607 C   0  0  0  0  0  0  0  0  0  0  0  0
  -20.4929   21.5370  -43.2242 C   0  0  0  0  0  0  0  0  0  0  0  0
  -19.6179   21.3100  -44.3289 N   0  0  0  0  0  4  0  0  0  0  0  0
  -18.4014   21.1510  -44.1587 O   0  0  0  0  0  0  0  0  0  0  0  0
  -20.1029   21.2625  -45.6055 O   0  0  0  0  0  1  0  0  0  0  0  0
  -20.0270   21.5873  -41.9469 C   0  0  0  0  0  0  0  0  0  0  0  0
  -20.8378   21.8065  -40.8261 C   0  0  0  0  0  0  0  0  0  0  0  0
  -20.1176   21.8031  -39.2458 S   0  0  0  0  0  6  0  0  0  0  0  0
  -20.4263   23.1308  -38.5403 O   0  0  0  0  0  0  0  0  0  0  0  0
  -18.5933   21.8487  -39.3851 O   0  0  0  0  0  0  0  0  0  0  0  0
  -20.5384   20.4806  -38.2556 N   0  0  0  0  0  0  0  0  0  0  0  0
  -21.8840   20.2205  -37.8488 C   0  0  0  0  0  0  0  0  0  0  0  0
  -19.5526   19.5871  -37.8017 N   0  0  0  0  0  0  0  0  0  0  0  0
  -18.5948   19.1516  -38.5144 C   0  0  0  0  0  0  0  0  0  0  0  0
  -17.5732   18.2248  -38.0420 C   0  0  0  0  0  0  0  0  0  0  0  0
  -17.5411   16.8807  -38.3134 C   0  0  0  0  0  0  0  0  0  0  0  0
  -16.4456   16.3739  -37.7009 N   0  0  0  0  0  0  0  0  0  0  0  0
  -15.7899   17.3749  -37.0504 C   0  0  0  0  0  0  0  0  0  0  0  0
  -14.6442   17.4195  -36.2848 C   0  0  0  0  0  0  0  0  0  0  0  0
  -14.2128   18.6110  -35.7408 C   0  0  0  0  0  0  0  0  0  0  0  0
  -14.9687   19.7352  -35.9949 C   0  0  0  0  0  0  0  0  0  0  0  0
  -14.4532   21.4103  -35.2901 Br  0  0  0  0  0  0  0  0  0  0  0  0
  -16.1227   19.6814  -36.7680 C   0  0  0  0  0  0  0  0  0  0  0  0
  -16.5021   18.5037  -37.2746 N   0  0  0  0  0  0  0  0  0  0  0  0
  -18.7678   20.0489  -38.9295 Cl  0  0  0  0  0  0  0  0  0  0  0  0
  1  2  1  0
  2  3  2  0
  3  4  1  0
  4  5  2  0
  5  6  1  0
  6  7  2  0
  6  8  1  0
  5  9  1  0
  9 10  2  0
 10 11  1  0
 11 12  2  0
 11 13  2  0
 11 14  1  0
 14 15  1  0
 14 16  1  0
 16 17  2  0
 17 18  1  0
 18 19  2  0
 19 20  1  0
 20 21  2  0
 21 22  1  0
 22 23  2  0
 23 24  1  0
 24 25  1  0
 24 26  2  0
 26 27  1  0
 10  2  1  0
 27 18  1  0
 27 21  1  0
M  CHG  2   6   1   8  -1
M  END
$$$$
