
     RDKit          3D

 29 29  0  0  0  0  0  0  0  0999 V2000
  -18.3290   43.3722  -23.7494 C   0  0  0  0  0  0  0  0  0  0  0  0
  -18.9488   42.1569  -24.0775 O   0  0  0  0  0  0  0  0  0  0  0  0
  -19.7611   42.0841  -25.1843 C   0  0  0  0  0  0  0  0  0  0  0  0
  -19.9326   43.2381  -25.9383 C   0  0  0  0  0  0  0  0  0  0  0  0
  -20.7328   43.2191  -27.0514 C   0  0  0  0  0  0  0  0  0  0  0  0
  -21.3351   42.0324  -27.3679 C   0  0  0  0  0  0  0  0  0  0  0  0
  -21.1909   40.8533  -26.6416 C   0  0  0  0  0  0  0  0  0  0  0  0
  -21.8144   39.6988  -27.0023 O   0  0  0  0  0  0  0  0  0  0  0  0
  -22.6593   39.5424  -28.1198 C   0  0  0  0  0  0  0  0  0  0  0  0
  -23.1341   38.1215  -28.1492 C   0  0  0  0  0  0  0  0  0  0  0  0
  -24.0489   37.8117  -29.2986 C   0  0  0  0  0  0  0  0  0  0  0  0
  -25.2512   38.5885  -29.3261 N   0  0  0  0  0  0  0  0  0  0  0  0
  -20.3867   40.8781  -25.5251 C   0  0  0  0  0  0  0  0  0  0  0  0
  -20.1643   39.6960  -24.6995 C   0  0  0  0  0  0  0  0  0  0  0  0
  -19.3636   39.5515  -23.5900 C   0  0  0  0  0  0  0  0  0  0  0  0
  -19.4392   38.2406  -23.1096 C   0  0  0  0  0  0  0  0  0  0  0  0
  -18.7483   37.7064  -21.9779 N   0  0  0  0  0  0  0  0  0  0  0  0
  -17.8757   38.4609  -21.1785 C   0  0  0  0  0  0  0  0  0  0  0  0
  -18.3465   39.0995  -20.0642 C   0  0  0  0  0  0  0  0  0  0  0  0
  -17.5067   39.8308  -19.2904 N   0  0  0  0  0  0  0  0  0  0  0  0
  -16.2068   39.9397  -19.6033 C   0  0  0  0  0  0  0  0  0  0  0  0
  -15.3437   40.7139  -18.7705 C   0  0  0  0  0  0  0  0  0  0  0  0
  -14.6380   41.3717  -18.0892 N   0  0  0  0  0  0  0  0  0  0  0  0
  -15.7193   39.2982  -20.7286 C   0  0  0  0  0  0  0  0  0  0  0  0
  -16.5834   38.5699  -21.4887 N   0  0  0  0  0  0  0  0  0  0  0  0
  -20.2750   37.6182  -23.9255 N   0  0  0  0  0  0  0  0  0  0  0  0
  -20.7055   38.4674  -24.8631 N   0  0  0  0  0  0  0  0  0  0  0  0
  -20.6537   40.1063  -25.3452 Cl  0  0  0  0  0  0  0  0  0  0  0  0
  -20.6552   40.1064  -25.3470 Cl  0  0  0  0  0  0  0  0  0  0  0  0
  1  2  1  0
  2  3  1  0
  3  4  2  0
  4  5  1  0
  5  6  2  0
  6  7  1  0
  7  8  1  0
  8  9  1  0
  9 10  1  0
 10 11  1  0
 11 12  1  0
  7 13  2  0
 13 14  1  0
 14 15  2  0
 15 16  1  0
 16 17  1  0
 17 18  1  0
 18 19  2  0
 19 20  1  0
 20 21  2  0
 21 22  1  0
 22 23  3  0
 21 24  1  0
 24 25  2  0
 16 26  2  0
 26 27  1  0
 13  3  1  0
 27 14  1  0
 25 18  1  0
M  END
$$$$
