
     RDKit          3D

 35 37  0  0  0  0  0  0  0  0999 V2000
  -14.3820   -5.4574  -29.9858 C   0  0  0  0  0  0  0  0  0  0  0  0
  -14.6175   -4.1543  -30.7175 C   0  0  2  0  0  0  0  0  0  0  0  0
  -15.9116   -3.5413  -30.2487 C   0  0  0  0  0  0  0  0  0  0  0  0
  -16.1406   -3.8426  -28.7954 C   0  0  0  0  0  0  0  0  0  0  0  0
  -15.0906   -4.3459  -28.0663 C   0  0  0  0  0  0  0  0  0  0  0  0
  -15.2144   -4.6594  -26.7298 C   0  0  0  0  0  0  0  0  0  0  0  0
  -16.4506   -4.4494  -26.1224 C   0  0  0  0  0  0  0  0  0  0  0  0
  -17.5303   -3.9513  -26.8202 C   0  0  0  0  0  0  0  0  0  0  0  0
  -18.8493   -3.8457  -26.2405 C   0  0  0  0  0  0  0  0  0  0  0  0
  -19.9120   -3.0752  -26.7332 N   0  0  0  0  0  0  0  0  0  0  0  0
  -19.0619   -4.5146  -25.1689 O   0  0  0  0  0  0  0  0  0  0  0  0
  -17.3449   -3.6475  -28.1829 C   0  0  0  0  0  0  0  0  0  0  0  0
  -16.2598   -4.7753  -24.7289 N   0  0  0  0  0  0  0  0  0  0  0  0
  -16.8812   -4.1128  -23.6290 C   0  0  0  0  0  0  0  0  0  0  0  0
  -15.7710   -3.4482  -22.7521 C   0  0  0  0  0  0  0  0  0  0  0  0
  -16.0076   -1.9721  -22.8953 C   0  0  0  0  0  0  0  0  0  0  0  0
  -16.4486   -1.3465  -21.7465 O   0  0  0  0  0  0  0  0  0  0  0  0
  -15.3146   -5.8928  -24.7726 C   0  0  0  0  0  0  0  0  0  0  0  0
  -14.2790   -5.2497  -25.7146 C   0  0  0  0  0  0  0  0  0  0  0  0
  -14.3069   -4.0956  -32.0593 N   0  0  0  0  0  0  0  0  0  0  0  0
  -14.1826   -2.9373  -32.8240 C   0  0  0  0  0  0  0  0  0  0  0  0
  -15.0042   -1.7440  -32.4682 C   0  0  0  0  0  0  0  0  0  0  0  0
  -14.7486   -0.5687  -33.0963 O   0  0  0  0  0  0  0  0  0  0  0  0
  -15.3430    0.2711  -33.9570 C   0  0  0  0  0  0  0  0  0  0  0  0
  -16.3803   -0.0558  -34.7730 C   0  0  0  0  0  0  0  0  0  0  0  0
  -16.9161    0.8970  -35.6176 C   0  0  0  0  0  0  0  0  0  0  0  0
  -16.4412    2.1843  -35.6733 C   0  0  0  0  0  0  0  0  0  0  0  0
  -15.3729    2.5082  -34.8285 C   0  0  0  0  0  0  0  0  0  0  0  0
  -14.8050    1.6064  -33.9758 C   0  0  0  0  0  0  0  0  0  0  0  0
  -13.7683    1.8820  -33.1498 O   0  0  0  0  0  0  0  0  0  0  0  0
  -13.5293    2.6003  -32.0261 C   0  0  0  0  0  0  0  0  0  0  0  0
  -12.3687    2.2399  -31.1578 C   0  0  0  0  0  0  0  0  0  0  0  0
  -12.4061    1.0798  -30.4854 F   0  0  0  0  0  0  0  0  0  0  0  0
  -12.0551    3.2787  -30.2811 F   0  0  0  0  0  0  0  0  0  0  0  0
  -11.2575    2.1715  -32.0200 F   0  0  0  0  0  0  0  0  0  0  0  0
  2  1  1  6
  2  3  1  0
  3  4  1  0
  4  5  2  0
  5  6  1  0
  6  7  2  0
  7  8  1  0
  8  9  1  0
  9 10  1  0
  9 11  2  0
  8 12  2  0
  7 13  1  0
 13 14  1  0
 14 15  1  0
 15 16  1  0
 16 17  1  0
 13 18  1  0
 18 19  1  0
  2 20  1  0
 20 21  1  0
 21 22  1  0
 22 23  1  0
 23 24  1  0
 24 25  2  0
 25 26  1  0
 26 27  2  0
 27 28  1  0
 28 29  2  0
 29 30  1  0
 30 31  1  0
 31 32  1  0
 32 33  1  0
 32 34  1  0
 32 35  1  0
 12  4  1  0
 29 24  1  0
 19  6  1  0
M  END
$$$$
