
     RDKit          3D

 23 25  0  0  0  0  0  0  0  0999 V2000
  -18.2191   38.3831  -20.0146 O   0  0  0  0  0  0  0  0  0  0  0  0
  -18.3049   38.8232  -21.2135 C   0  0  0  0  0  0  0  0  0  0  0  0
  -18.1734   40.2288  -21.4237 N   0  0  0  0  0  0  0  0  0  0  0  0
  -18.2613   40.7668  -22.7380 C   0  0  0  0  0  0  0  0  0  0  0  0
  -18.1244   42.2281  -22.9537 C   0  0  0  0  0  0  0  0  0  0  0  0
  -18.6738   42.7843  -24.0763 C   0  0  0  0  0  0  0  0  0  0  0  0
  -18.5759   44.1473  -24.3289 C   0  0  0  0  0  0  0  0  0  0  0  0
  -17.9099   44.9243  -23.4177 C   0  0  0  0  0  0  0  0  0  0  0  0
  -17.3450   44.4010  -22.2786 C   0  0  0  0  0  0  0  0  0  0  0  0
  -16.6623   45.2405  -21.3578 N   0  0  0  0  0  4  0  0  0  0  0  0
  -16.8379   45.0719  -20.1420 O   0  0  0  0  0  0  0  0  0  0  0  0
  -15.8207   46.2245  -21.7858 O   0  0  0  0  0  1  0  0  0  0  0  0
  -17.4693   43.0383  -22.0716 C   0  0  0  0  0  0  0  0  0  0  0  0
  -18.4642   39.9367  -23.7318 C   0  0  0  0  0  0  0  0  0  0  0  0
  -18.6155   38.4668  -23.6362 C   0  0  0  0  0  0  0  0  0  0  0  0
  -18.5230   37.9509  -22.3023 N   0  0  0  0  0  0  0  0  0  0  0  0
  -18.6578   36.5458  -22.1236 C   0  0  0  0  0  0  0  0  0  0  0  0
  -19.8980   35.9308  -22.1722 C   0  0  0  0  0  0  0  0  0  0  0  0
  -19.9901   34.5674  -21.9946 C   0  0  0  0  0  0  0  0  0  0  0  0
  -18.8327   33.8468  -21.7711 C   0  0  0  0  0  0  0  0  0  0  0  0
  -17.5896   34.4384  -21.7189 C   0  0  0  0  0  0  0  0  0  0  0  0
  -17.5133   35.8037  -21.8985 C   0  0  0  0  0  0  0  0  0  0  0  0
  -16.2734   36.4709  -21.8570 O   0  0  0  0  0  0  0  0  0  0  0  0
  1  2  2  0
  2  3  1  0
  3  4  1  0
  4  5  1  0
  5  6  2  0
  6  7  1  0
  7  8  2  0
  8  9  1  0
  9 10  1  0
 10 11  2  0
 10 12  1  0
  9 13  2  0
  4 14  2  0
 14 15  1  0
 15 16  1  0
 16 17  1  0
 17 18  2  0
 18 19  1  0
 19 20  2  0
 20 21  1  0
 21 22  2  0
 22 23  1  0
 16  2  1  0
 22 17  1  0
 13  5  1  0
M  CHG  2  10   1  12  -1
M  END
$$$$
