
     RDKit          3D

 29 32  0  0  0  0  0  0  0  0999 V2000
  -29.1506   18.3212  -25.5580 O   0  0  0  0  0  0  0  0  0  0  0  0
  -30.2846   17.9813  -25.9627 C   0  0  0  0  0  0  0  0  0  0  0  0
  -31.1469   18.7535  -26.8810 C   0  0  0  0  0  0  0  0  0  0  0  0
  -30.4377   19.9403  -27.4377 C   0  0  0  0  0  0  0  0  0  0  0  0
  -29.4264   19.5185  -28.4410 C   0  0  0  0  0  0  0  0  0  0  0  0
  -28.9059   20.6222  -29.2224 N   0  0  0  0  0  0  0  0  0  0  0  0
  -29.5104   20.6296  -30.5635 C   0  0  0  0  0  0  0  0  0  0  0  0
  -29.4786   22.0777  -30.9955 C   0  0  0  0  0  0  0  0  0  0  0  0
  -28.1322   22.6395  -30.6878 C   0  0  0  0  0  0  0  0  0  0  0  0
  -27.0631   21.6257  -30.3888 C   0  0  0  0  0  0  0  0  0  0  0  0
  -27.4828   20.5466  -29.4384 C   0  0  0  0  0  0  0  0  0  0  0  0
  -28.2185   23.5150  -29.4686 C   0  0  0  0  0  0  0  0  0  0  0  0
  -28.2842   23.0766  -28.2944 O   0  0  0  0  0  0  0  0  0  0  0  0
  -28.2071   24.8495  -29.9513 N   0  0  0  0  0  0  0  0  0  0  0  0
  -27.4720   24.8227  -31.1903 C   0  0  0  0  0  0  0  0  0  0  0  0
  -27.7026   23.4892  -31.7544 N   0  0  0  0  0  0  0  0  0  0  0  0
  -27.5034   23.1984  -33.1310 C   0  0  0  0  0  0  0  0  0  0  0  0
  -26.5649   22.2414  -33.5270 C   0  0  0  0  0  0  0  0  0  0  0  0
  -26.3320   21.9211  -34.8424 C   0  0  0  0  0  0  0  0  0  0  0  0
  -27.0567   22.5733  -35.8161 C   0  0  0  0  0  0  0  0  0  0  0  0
  -27.9979   23.5278  -35.4973 C   0  0  0  0  0  0  0  0  0  0  0  0
  -28.1885   23.8081  -34.1513 C   0  0  0  0  0  0  0  0  0  0  0  0
  -30.7831   16.6822  -25.4597 C   0  0  0  0  0  0  0  0  0  0  0  0
  -30.0662   15.9622  -24.5252 C   0  0  0  0  0  0  0  0  0  0  0  0
  -30.5108   14.7377  -24.0348 C   0  0  0  0  0  0  0  0  0  0  0  0
  -31.6944   14.2243  -24.4878 C   0  0  0  0  0  0  0  0  0  0  0  0
  -32.1683   13.0338  -24.0386 F   0  0  0  0  0  0  0  0  0  0  0  0
  -32.4371   14.9188  -25.4231 C   0  0  0  0  0  0  0  0  0  0  0  0
  -31.9702   16.1327  -25.8919 C   0  0  0  0  0  0  0  0  0  0  0  0
  1  2  2  0
  2  3  1  0
  3  4  1  0
  4  5  1  0
  5  6  1  0
  6  7  1  0
  7  8  1  0
  8  9  1  0
  9 10  1  0
 10 11  1  0
  9 12  1  0
 12 13  2  0
 12 14  1  0
 14 15  1  0
 15 16  1  0
 16 17  1  0
 17 18  2  0
 18 19  1  0
 19 20  2  0
 20 21  1  0
 21 22  2  0
  2 23  1  0
 23 24  2  0
 24 25  1  0
 25 26  2  0
 26 27  1  0
 26 28  1  0
 28 29  2  0
 11  6  1  0
 22 17  1  0
 29 23  1  0
 16  9  1  0
M  END
$$$$
