
     RDKit          3D

 35 38  0  0  0  0  0  0  0  0999 V2000
  -13.0452   21.7542  -44.3888 C   0  0  0  0  0  0  0  0  0  0  0  0
  -13.2389   21.3659  -43.0568 O   0  0  0  0  0  0  0  0  0  0  0  0
  -14.5263   21.1430  -42.5830 C   0  0  0  0  0  0  0  0  0  0  0  0
  -15.6007   21.8040  -43.1626 C   0  0  0  0  0  0  0  0  0  0  0  0
  -16.8815   21.6208  -42.7340 C   0  0  0  0  0  0  0  0  0  0  0  0
  -18.0055   22.1964  -43.2068 O   0  0  0  0  0  0  0  0  0  0  0  0
  -18.7856   23.2605  -42.8942 C   0  0  0  0  0  0  0  0  0  0  0  0
  -20.2237   22.9352  -42.7775 C   0  0  0  0  0  0  0  0  0  0  0  0
  -20.8505   22.2879  -43.8126 C   0  0  0  0  0  0  0  0  0  0  0  0
  -22.2014   21.9386  -43.7267 C   0  0  0  0  0  0  0  0  0  0  0  0
  -22.8957   22.2528  -42.5880 C   0  0  0  0  0  0  0  0  0  0  0  0
  -22.2708   22.9117  -41.5256 C   0  0  0  0  0  0  0  0  0  0  0  0
  -23.0091   23.2371  -40.3176 C   0  0  0  0  0  0  0  0  0  0  0  0
  -23.4275   22.3165  -39.3825 C   0  0  0  0  0  0  0  0  0  0  0  0
  -24.1239   22.6913  -38.2530 C   0  0  0  0  0  0  0  0  0  0  0  0
  -24.4351   24.0100  -38.0061 C   0  0  0  0  0  0  0  0  0  0  0  0
  -24.0303   24.9566  -38.9240 C   0  0  0  0  0  0  0  0  0  0  0  0
  -23.3351   24.5715  -40.0491 C   0  0  0  0  0  0  0  0  0  0  0  0
  -20.9485   23.2495  -41.6199 C   0  0  0  0  0  0  0  0  0  0  0  0
  -20.2654   23.9542  -40.5188 C   0  0  0  0  0  0  0  0  0  0  0  0
  -17.0385   20.7150  -41.6633 C   0  0  0  0  0  0  0  0  0  0  0  0
  -15.9811   20.0562  -41.0835 C   0  0  0  0  0  0  0  0  0  0  0  0
  -16.1390   19.1677  -40.0299 O   0  0  0  0  0  0  0  0  0  0  0  0
  -16.9865   19.4367  -38.9336 C   0  0  0  0  0  0  0  0  0  0  0  0
  -14.7052   20.2623  -41.5384 C   0  0  0  0  0  0  0  0  0  0  0  0
  -13.5653   19.5578  -40.9093 C   0  0  0  0  0  0  0  0  0  0  0  0
  -13.2858   18.3608  -41.5958 N   0  0  0  0  0  0  0  0  0  0  0  0
  -13.1569   17.1551  -40.9105 C   0  0  0  0  0  0  0  0  0  0  0  0
  -12.1533   16.1743  -41.4528 C   0  0  0  0  0  0  0  0  0  0  0  0
  -11.6665   16.4391  -42.8293 C   0  0  0  0  0  0  0  0  0  0  0  0
  -11.6294   17.8989  -43.2210 C   0  0  0  0  0  0  0  0  0  0  0  0
  -13.0432   18.4127  -42.9855 C   0  0  1  0  0  0  0  0  0  0  0  0
  -14.0224   17.5670  -43.7063 C   0  0  0  0  0  0  0  0  0  0  0  0
  -14.9607   16.9923  -43.1060 O   0  0  0  0  0  0  0  0  0  0  0  0
  -13.9104   17.3995  -45.0706 O   0  0  0  0  0  0  0  0  0  0  0  0
  1  2  1  0
  2  3  1  0
  3  4  2  0
  4  5  1  0
  5  6  1  0
  6  7  1  0
  7  8  1  0
  8  9  2  0
  9 10  1  0
 10 11  2  0
 11 12  1  0
 12 13  1  0
 13 14  2  0
 14 15  1  0
 15 16  2  0
 16 17  1  0
 17 18  2  0
 12 19  2  0
 19 20  1  0
  5 21  2  0
 21 22  1  0
 22 23  1  0
 23 24  1  0
 22 25  2  0
 25 26  1  0
 26 27  1  0
 27 28  1  0
 28 29  1  0
 29 30  1  0
 30 31  1  0
 31 32  1  0
 32 33  1  6
 33 34  2  0
 33 35  1  0
 25  3  1  0
 32 27  1  0
 19  8  1  0
 18 13  1  0
M  END
$$$$
