
     RDKit          3D

 28 30  0  0  0  0  0  0  0  0999 V2000
  -11.2304   41.8215  -16.5256 C   0  0  0  0  0  0  0  0  0  0  0  0
  -12.3926   42.1380  -17.4347 C   0  0  0  0  0  0  0  0  0  0  0  0
  -12.0506   43.2667  -18.2089 O   0  0  0  0  0  0  0  0  0  0  0  0
  -12.9311   43.7461  -19.1609 C   0  0  0  0  0  0  0  0  0  0  0  0
  -14.2475   43.9303  -18.8380 C   0  0  0  0  0  0  0  0  0  0  0  0
  -15.1692   44.4143  -19.7752 C   0  0  0  0  0  0  0  0  0  0  0  0
  -14.7709   44.7189  -21.0555 C   0  0  0  0  0  0  0  0  0  0  0  0
  -15.7059   45.2191  -22.0839 C   0  0  0  0  0  0  0  0  0  0  0  0
  -16.7760   44.2845  -22.4467 C   0  0  0  0  0  0  0  0  0  0  0  0
  -16.6812   42.9439  -22.0332 C   0  0  0  0  0  0  0  0  0  0  0  0
  -17.6473   42.0079  -22.3247 C   0  0  0  0  0  0  0  0  0  0  0  0
  -17.5209   40.5896  -21.8740 C   0  0  2  0  0  0  0  0  0  0  0  0
  -17.3403   39.8404  -22.9909 O   0  0  0  0  0  0  0  0  0  0  0  0
  -17.8229   38.5894  -23.0674 C   0  0  2  0  0  0  0  0  0  0  0  0
  -18.9214   38.5767  -24.1386 C   0  0  0  0  0  0  0  0  0  0  0  0
  -18.3990   38.7067  -25.4224 O   0  0  0  0  0  0  0  0  0  0  0  0
  -18.2233   37.8866  -21.8302 C   0  0  1  0  0  0  0  0  0  0  0  0
  -17.2630   36.9132  -21.4515 O   0  0  0  0  0  0  0  0  0  0  0  0
  -18.6276   38.7328  -20.6748 C   0  0  2  0  0  0  0  0  0  0  0  0
  -19.8737   38.3403  -20.1628 O   0  0  0  0  0  0  0  0  0  0  0  0
  -18.6405   40.2196  -20.9706 C   0  0  1  0  0  0  0  0  0  0  0  0
  -18.3622   40.8358  -19.7226 O   0  0  0  0  0  0  0  0  0  0  0  0
  -18.7297   42.4392  -23.0490 C   0  0  0  0  0  0  0  0  0  0  0  0
  -18.8403   43.7684  -23.4684 C   0  0  0  0  0  0  0  0  0  0  0  0
  -17.8607   44.6952  -23.1671 C   0  0  0  0  0  0  0  0  0  0  0  0
  -18.0753   46.3493  -23.7485 Cl  0  0  0  0  0  0  0  0  0  0  0  0
  -13.4356   44.5296  -21.3739 C   0  0  0  0  0  0  0  0  0  0  0  0
  -12.5292   44.0512  -20.4433 C   0  0  0  0  0  0  0  0  0  0  0  0
  1  2  1  0
  2  3  1  0
  3  4  1  0
  4  5  2  0
  5  6  1  0
  6  7  2  0
  7  8  1  0
  8  9  1  0
  9 10  2  0
 10 11  1  0
 12 11  1  6
 12 13  1  0
 13 14  1  0
 14 15  1  6
 15 16  1  0
 14 17  1  0
 17 18  1  1
 17 19  1  0
 19 20  1  6
 19 21  1  0
 21 22  1  1
 11 23  2  0
 23 24  1  0
 24 25  2  0
 25 26  1  0
  7 27  1  0
 27 28  2  0
 28  4  1  0
 25  9  1  0
 21 12  1  0
M  END
$$$$
