
     RDKit          3D

 30 34  0  0  0  0  0  0  0  0999 V2000
  -14.1632   19.9773  -32.0817 C   0  0  0  0  0  0  0  0  0  0  0  0
  -14.7251   18.5896  -31.9075 C   0  0  0  0  0  0  0  0  0  0  0  0
  -16.0393   18.2313  -31.9860 C   0  0  0  0  0  0  0  0  0  0  0  0
  -16.1731   16.8463  -31.7673 C   0  0  0  0  0  0  0  0  0  0  0  0
  -17.3953   16.1329  -31.7794 N   0  0  0  0  0  0  0  0  0  0  0  0
  -17.4034   14.7996  -32.3618 C   0  0  0  0  0  0  0  0  0  0  0  0
  -18.7094   14.0808  -32.0293 C   0  0  0  0  0  0  0  0  0  0  0  0
  -19.7926   14.8404  -32.5483 N   0  0  0  0  0  0  0  0  0  0  0  0
  -21.1014   14.3902  -32.2659 C   0  0  2  0  0  0  0  0  0  0  0  0
  -21.4476   13.0009  -32.6570 C   0  0  0  0  0  0  0  0  0  0  0  0
  -22.0920   13.2079  -33.9652 N   0  0  0  0  0  0  0  0  0  0  0  0
  -23.1112   14.1831  -33.5398 C   0  0  2  0  0  0  0  0  0  0  0  0
  -23.8948   14.6796  -34.6686 C   0  0  0  0  0  0  0  0  0  0  0  0
  -23.6188   14.2404  -35.8183 O   0  0  0  0  0  0  0  0  0  0  0  0
  -24.9241   15.6242  -34.4401 N   0  0  0  0  0  0  0  0  0  0  0  0
  -25.2968   16.1163  -33.1303 C   0  0  0  0  0  0  0  0  0  0  0  0
  -25.0757   17.6357  -33.1751 C   0  0  0  0  0  0  0  0  0  0  0  0
  -25.7877   17.9651  -34.8396 S   0  0  0  0  0  0  0  0  0  0  0  0
  -25.7448   16.2327  -35.4611 C   0  0  0  0  0  0  0  0  0  0  0  0
  -22.1920   15.2348  -32.9387 C   0  0  0  0  0  0  0  0  0  0  0  0
  -19.6852   16.2498  -32.3700 C   0  0  0  0  0  0  0  0  0  0  0  0
  -18.6625   16.5645  -31.2786 C   0  0  0  0  0  0  0  0  0  0  0  0
  -14.9165   16.4425  -31.5668 N   0  0  0  0  0  0  0  0  0  0  0  0
  -14.4423   15.1335  -31.2995 C   0  0  0  0  0  0  0  0  0  0  0  0
  -13.4351   14.5462  -32.0240 C   0  0  0  0  0  0  0  0  0  0  0  0
  -13.0190   13.2857  -31.6948 C   0  0  0  0  0  0  0  0  0  0  0  0
  -13.5793   12.5948  -30.6633 C   0  0  0  0  0  0  0  0  0  0  0  0
  -14.5848   13.1679  -29.9318 C   0  0  0  0  0  0  0  0  0  0  0  0
  -15.0250   14.4310  -30.2367 C   0  0  0  0  0  0  0  0  0  0  0  0
  -14.0526   17.4636  -31.6472 N   0  0  0  0  0  0  0  0  0  0  0  0
  1  2  1  0
  2  3  1  0
  3  4  2  0
  4  5  1  0
  5  6  1  0
  6  7  1  0
  7  8  1  0
  9  8  1  6
  9 10  1  0
 10 11  1  0
 11 12  1  0
 12 13  1  6
 13 14  2  0
 13 15  1  0
 15 16  1  0
 16 17  1  0
 17 18  1  0
 18 19  1  0
 12 20  1  0
  8 21  1  0
 21 22  1  0
  4 23  1  0
 23 24  1  0
 24 25  2  0
 25 26  1  0
 26 27  2  0
 27 28  1  0
 28 29  2  0
 23 30  1  0
 30  2  2  0
 22  5  1  0
 29 24  1  0
 20  9  1  0
 19 15  1  0
M  END
$$$$
