
     RDKit          3D

 33 37  0  0  0  0  0  0  0  0999 V2000
  -16.7893   16.0631  -40.9262 C   0  0  0  0  0  0  0  0  0  0  0  0
  -16.0885   17.2477  -41.2464 O   0  0  0  0  0  0  0  0  0  0  0  0
  -14.8543   17.5514  -40.7111 C   0  0  0  0  0  0  0  0  0  0  0  0
  -14.5080   17.3535  -39.4055 C   0  0  0  0  0  0  0  0  0  0  0  0
  -13.2839   17.6583  -38.8898 C   0  0  0  0  0  0  0  0  0  0  0  0
  -12.9506   17.4473  -37.5461 C   0  0  0  0  0  0  0  0  0  0  0  0
  -13.9258   16.9139  -36.7685 O   0  0  0  0  0  0  0  0  0  0  0  0
  -13.8486   16.0929  -35.6923 C   0  0  0  0  0  0  0  0  0  0  0  0
  -13.2471   14.8637  -35.7513 C   0  0  0  0  0  0  0  0  0  0  0  0
  -13.2124   14.0874  -34.5989 C   0  0  0  0  0  0  0  0  0  0  0  0
  -13.7515   14.4875  -33.3969 C   0  0  0  0  0  0  0  0  0  0  0  0
  -13.8412   13.9303  -32.1714 N   0  0  0  0  0  0  0  0  0  0  0  0
  -14.4770   14.7581  -31.3340 C   0  0  0  0  0  0  0  0  0  0  0  0
  -14.7724   14.5062  -29.8940 C   0  0  0  0  0  0  0  0  0  0  0  0
  -14.8032   15.8812  -32.0528 C   0  0  0  0  0  0  0  0  0  0  0  0
  -14.3521   15.7343  -33.3710 C   0  0  0  0  0  0  0  0  0  0  0  0
  -14.4075   16.5272  -34.4792 C   0  0  0  0  0  0  0  0  0  0  0  0
  -14.9902   17.7301  -34.4453 F   0  0  0  0  0  0  0  0  0  0  0  0
  -11.7121   17.7928  -37.1739 N   0  0  0  0  0  0  0  0  0  0  0  0
  -10.7871   18.3183  -37.9899 C   0  0  0  0  0  0  0  0  0  0  0  0
  -11.1087   18.5193  -39.2760 N   0  0  0  0  0  0  0  0  0  0  0  0
  -12.3559   18.1941  -39.7435 C   0  0  0  0  0  0  0  0  0  0  0  0
  -12.6420   18.4187  -41.0724 C   0  0  0  0  0  0  0  0  0  0  0  0
  -13.8964   18.1039  -41.5891 C   0  0  0  0  0  0  0  0  0  0  0  0
  -14.2020   18.2972  -42.8102 O   0  0  0  0  0  0  0  0  0  0  0  0
  -14.4777   18.5514  -44.0401 C   0  0  0  0  0  0  0  0  0  0  0  0
  -13.3085   18.3746  -45.0110 C   0  0  0  0  0  0  0  0  0  0  0  0
  -13.7898   18.6999  -46.3937 C   0  0  0  0  0  0  0  0  0  0  0  0
  -13.9272   20.1231  -46.5654 N   0  0  0  0  0  0  0  0  0  0  0  0
  -12.6637   20.8209  -46.6092 C   0  0  0  0  0  0  0  0  0  0  0  0
  -12.0285   20.3258  -47.8686 C   0  0  0  0  0  0  0  0  0  0  0  0
  -13.1923   20.2553  -48.8220 C   0  0  0  0  0  0  0  0  0  0  0  0
  -14.4214   20.3413  -47.9339 C   0  0  0  0  0  0  0  0  0  0  0  0
  1  2  1  0
  2  3  1  0
  3  4  2  0
  4  5  1  0
  5  6  2  0
  6  7  1  0
  7  8  1  0
  8  9  2  0
  9 10  1  0
 10 11  2  0
 11 12  1  0
 12 13  1  0
 13 14  1  0
 13 15  2  0
 15 16  1  0
 16 17  2  0
 17 18  1  0
  6 19  1  0
 19 20  2  0
 20 21  1  0
 21 22  2  0
 22 23  1  0
 23 24  2  0
 24 25  1  0
 25 26  1  0
 26 27  1  0
 27 28  1  0
 28 29  1  0
 29 30  1  0
 30 31  1  0
 31 32  1  0
 32 33  1  0
 24  3  1  0
 33 29  1  0
 22  5  1  0
 17  8  1  0
 16 11  1  0
M  END
$$$$
