
     RDKit          3D

 17 16  0  0  0  0  0  0  0  0999 V2000
  -16.7627   40.5404  -19.2790 C   0  0  0  0  0  0  0  0  0  0  0  0
  -17.2535   39.9757  -20.5762 C   0  0  0  0  0  0  0  0  0  0  0  0
  -17.7208   40.7949  -21.5853 C   0  0  0  0  0  0  0  0  0  0  0  0
  -18.1619   40.2358  -22.7601 C   0  0  0  0  0  0  0  0  0  0  0  0
  -18.1542   38.8746  -22.9679 C   0  0  0  0  0  0  0  0  0  0  0  0
  -17.6891   38.0584  -21.9634 C   0  0  0  0  0  0  0  0  0  0  0  0
  -17.6696   36.6832  -22.1445 O   0  0  0  0  0  0  0  0  0  0  0  0
  -18.1326   36.1659  -23.3666 C   0  0  0  0  0  0  0  0  0  0  0  0
  -18.0507   34.6566  -23.4161 C   0  0  0  0  0  0  0  0  0  0  0  0
  -18.5378   34.2596  -24.6645 O   0  0  0  0  0  0  0  0  0  0  0  0
  -18.8049   33.9948  -22.2924 C   0  0  0  0  0  0  0  0  0  0  0  0
  -20.1940   34.3559  -22.3839 N   0  0  0  0  0  0  0  0  0  0  0  0
  -20.9956   33.7529  -21.3383 C   0  0  0  0  0  0  0  0  0  0  0  0
  -20.5476   34.1554  -19.9657 C   0  0  0  0  0  0  0  0  0  0  0  0
  -21.0390   32.2638  -21.4336 C   0  0  0  0  0  0  0  0  0  0  0  0
  -17.2419   38.6230  -20.7729 C   0  0  0  0  0  0  0  0  0  0  0  0
  -18.4801   36.9761  -21.7197 Cl  0  0  0  0  0  0  0  0  0  0  0  0
  1  2  1  0
  2  3  2  0
  3  4  1  0
  4  5  2  0
  5  6  1  0
  6  7  1  0
  7  8  1  0
  8  9  1  0
  9 10  1  0
  9 11  1  0
 11 12  1  0
 12 13  1  0
 13 14  1  0
 13 15  1  0
  6 16  2  0
 16  2  1  0
M  END
$$$$
