
     RDKit          3D

 14 15  0  0  0  0  0  0  0  0999 V2000
  -19.8509   32.5476  -22.2682 O   0  0  0  0  0  0  0  0  0  0  0  0
  -19.4705   33.7495  -22.2438 C   0  0  0  0  0  0  0  0  0  0  0  0
  -20.2602   34.9261  -22.3430 N   0  0  0  0  0  0  0  0  0  0  0  0
  -19.4560   36.1052  -22.2733 C   0  0  0  0  0  0  0  0  0  0  0  0
  -18.1601   35.6598  -22.1302 C   0  0  0  0  0  0  0  0  0  0  0  0
  -17.1602   36.6277  -22.0370 C   0  0  0  0  0  0  0  0  0  0  0  0
  -17.4714   37.9655  -22.0876 C   0  0  0  0  0  0  0  0  0  0  0  0
  -18.7673   38.4123  -22.2308 C   0  0  0  0  0  0  0  0  0  0  0  0
  -19.1324   40.1415  -22.2923 Cl  0  0  0  0  0  0  0  0  0  0  0  0
  -19.7640   37.4656  -22.3239 C   0  0  0  0  0  0  0  0  0  0  0  0
  -21.4328   37.9646  -22.5073 Cl  0  0  0  0  0  0  0  0  0  0  0  0
  -18.0942   34.2017  -22.1039 C   0  0  0  0  0  0  0  0  0  0  0  0
  -17.0445   33.4476  -21.9828 N   0  0  0  0  0  0  0  0  0  0  0  0
  -15.7880   34.0318  -21.8227 O   0  0  0  0  0  0  0  0  0  0  0  0
  1  2  2  0
  2  3  1  0
  3  4  1  0
  4  5  2  0
  5  6  1  0
  6  7  2  0
  7  8  1  0
  8  9  1  0
  8 10  2  0
 10 11  1  0
  5 12  1  0
 12 13  2  0
 13 14  1  0
 12  2  1  0
 10  4  1  0
M  END
$$$$
