
     RDKit          3D

 21 21  0  0  0  0  0  0  0  0999 V2000
  -18.9474   17.5020  -33.1074 Cl  0  0  0  0  0  0  0  0  0  0  0  0
  -13.7343   19.4805  -31.4059 N   0  0  0  0  0  0  0  0  0  0  0  0
  -15.0105   18.9160  -31.0121 C   0  0  0  0  0  0  0  0  0  0  0  0
  -16.0150   18.9855  -32.1515 C   0  0  0  0  0  0  0  0  0  0  0  0
  -17.3392   18.3955  -31.7304 C   0  0  0  0  0  0  0  0  0  0  0  0
  -18.3641   18.4383  -32.8139 C   0  0  0  0  0  0  0  0  0  0  0  0
  -17.9958   17.7248  -33.9940 N   0  0  0  0  0  0  0  0  0  0  0  0
  -19.2374   17.8405  -35.1632 S   0  0  0  0  0  6  0  0  0  0  0  0
  -18.8364   17.1360  -36.4418 O   0  0  0  0  0  0  0  0  0  0  0  0
  -19.5036   19.2797  -35.5279 O   0  0  0  0  0  0  0  0  0  0  0  0
  -20.7407   17.1466  -34.6299 C   0  0  0  0  0  0  0  0  0  0  0  0
  -21.6712   17.9188  -33.9657 C   0  0  0  0  0  0  0  0  0  0  0  0
  -22.8715   17.4695  -33.5108 C   0  0  0  0  0  0  0  0  0  0  0  0
  -23.1959   16.1278  -33.7270 C   0  0  0  0  0  0  0  0  0  0  0  0
  -24.3958   15.6201  -33.2885 C   0  0  0  0  0  0  0  0  0  0  0  0
  -25.5063   16.6986  -32.4523 Cl  0  0  0  0  0  0  0  0  0  0  0  0
  -24.6808   14.3032  -33.5168 C   0  0  0  0  0  0  0  0  0  0  0  0
  -23.7873   13.4820  -34.1767 C   0  0  0  0  0  0  0  0  0  0  0  0
  -22.5763   13.9831  -34.6224 C   0  0  0  0  0  0  0  0  0  0  0  0
  -22.2887   15.3247  -34.3884 C   0  0  0  0  0  0  0  0  0  0  0  0
  -21.0629   15.8165  -34.8438 C   0  0  0  0  0  0  0  0  0  0  0  0
  2  3  1  0
  3  4  1  0
  4  5  1  0
  5  6  1  0
  6  7  1  0
  7  8  1  0
  8  9  2  0
  8 10  2  0
  8 11  1  0
 11 12  2  0
 12 13  1  0
 13 14  2  0
 14 15  1  0
 15 16  1  0
 15 17  2  0
 17 18  1  0
 18 19  2  0
 19 20  1  0
 20 21  2  0
 21 11  1  0
 20 14  1  0
M  END
$$$$
