
     RDKit          3D

 28 31  0  0  0  0  0  0  0  0999 V2000
  -26.4862   18.7288  -27.6392 C   0  0  0  0  0  0  0  0  0  0  0  0
  -27.4879   19.6535  -27.2621 O   0  0  0  0  0  0  0  0  0  0  0  0
  -27.9395   20.6278  -28.1208 C   0  0  0  0  0  0  0  0  0  0  0  0
  -27.0785   21.5765  -28.6283 C   0  0  0  0  0  0  0  0  0  0  0  0
  -27.5936   22.5499  -29.5014 C   0  0  0  0  0  0  0  0  0  0  0  0
  -28.9142   22.5518  -29.8355 C   0  0  0  0  0  0  0  0  0  0  0  0
  -29.7864   21.5778  -29.3118 C   0  0  0  0  0  0  0  0  0  0  0  0
  -29.2788   20.6291  -28.4592 C   0  0  0  0  0  0  0  0  0  0  0  0
  -30.1095   19.6639  -27.9312 O   0  0  0  0  0  0  0  0  0  0  0  0
  -30.9577   18.8834  -28.7474 C   0  0  0  0  0  0  0  0  0  0  0  0
  -29.1824   23.6558  -30.7447 C   0  0  0  0  0  0  0  0  0  0  0  0
  -30.3201   24.0956  -31.0043 O   0  0  0  0  0  0  0  0  0  0  0  0
  -27.8704   24.1109  -31.2615 C   0  0  0  0  0  0  0  0  0  0  0  0
  -27.4888   23.3879  -32.5332 C   0  0  0  0  0  0  0  0  0  0  0  0
  -26.2977   24.0387  -33.2099 C   0  0  0  0  0  0  0  0  0  0  0  0
  -25.5911   23.1608  -34.1557 C   0  0  0  0  0  0  0  0  0  0  0  0
  -25.5936   23.5524  -35.6007 C   0  0  0  0  0  0  0  0  0  0  0  0
  -25.8913   24.9200  -35.8424 N   0  0  0  0  0  0  0  0  0  0  0  0
  -26.1209   25.1334  -37.2505 C   0  0  0  0  0  0  0  0  0  0  0  0
  -25.0268   24.4865  -38.0473 C   0  0  0  0  0  0  0  0  0  0  0  0
  -23.7048   24.8104  -37.8426 C   0  0  0  0  0  0  0  0  0  0  0  0
  -22.7444   24.1902  -38.6109 C   0  0  0  0  0  0  0  0  0  0  0  0
  -23.0994   23.2673  -39.5612 C   0  0  0  0  0  0  0  0  0  0  0  0
  -24.4406   22.9478  -39.7585 C   0  0  0  0  0  0  0  0  0  0  0  0
  -25.4051   23.5635  -38.9951 C   0  0  0  0  0  0  0  0  0  0  0  0
  -27.0872   25.3331  -35.1281 C   0  0  0  0  0  0  0  0  0  0  0  0
  -26.7086   25.3895  -33.6861 C   0  0  0  0  0  0  0  0  0  0  0  0
  -26.9045   23.6691  -30.1836 C   0  0  0  0  0  0  0  0  0  0  0  0
  1  2  1  0
  2  3  1  0
  3  4  2  0
  4  5  1  0
  5  6  2  0
  6  7  1  0
  7  8  2  0
  8  9  1  0
  9 10  1  0
  6 11  1  0
 11 12  2  0
 11 13  1  0
 13 14  1  0
 14 15  1  0
 15 16  1  0
 16 17  1  0
 17 18  1  0
 18 19  1  0
 19 20  1  0
 20 21  2  0
 21 22  1  0
 22 23  2  0
 23 24  1  0
 24 25  2  0
 18 26  1  0
 26 27  1  0
 13 28  1  0
  8  3  1  0
 27 15  1  0
 28  5  1  0
 25 20  1  0
M  END
$$$$
