
     RDKit          3D

 34 38  0  0  0  0  0  0  0  0999 V2000
  -18.1188   15.1915  -30.5588 C   0  0  0  0  0  0  0  0  0  0  0  0
  -17.0226   15.8384  -31.4220 C   0  0  0  0  0  0  0  0  0  0  0  0
  -15.9673   14.8119  -31.6213 C   0  0  0  0  0  0  0  0  0  0  0  0
  -16.5250   17.0392  -30.6264 C   0  0  1  0  0  0  0  0  0  0  0  0
  -15.2152   16.8164  -30.1704 O   0  0  0  0  0  0  0  0  0  0  0  0
  -16.6064   18.3071  -31.4461 C   0  0  0  0  0  0  0  0  0  0  0  0
  -16.0604   18.1153  -32.8431 C   0  0  0  0  0  0  0  0  0  0  0  0
  -16.8284   17.0672  -33.6277 C   0  0  1  0  0  0  0  0  0  0  0  0
  -15.8434   16.2105  -34.3371 C   0  0  0  0  0  0  0  0  0  0  0  0
  -17.6962   16.3334  -32.6406 C   0  0  1  0  0  0  0  0  0  0  0  0
  -18.5590   15.2738  -33.3221 C   0  0  0  0  0  0  0  0  0  0  0  0
  -19.5550   16.0466  -34.1655 C   0  0  0  0  0  0  0  0  0  0  0  0
  -18.8058   16.8660  -35.1734 C   0  0  2  0  0  0  0  0  0  0  0  0
  -18.3020   15.9398  -36.2463 C   0  0  0  0  0  0  0  0  0  0  0  0
  -17.7540   17.7484  -34.5892 C   0  0  2  0  0  0  0  0  0  0  0  0
  -17.0960   18.4634  -35.6961 C   0  0  0  0  0  0  0  0  0  0  0  0
  -15.9520   18.9936  -35.6325 O   0  0  0  0  0  0  0  0  0  0  0  0
  -17.8047   18.5782  -36.9697 C   0  0  0  0  0  0  0  0  0  0  0  0
  -19.1022   18.2740  -37.0858 C   0  0  0  0  0  0  0  0  0  0  0  0
  -19.7120   18.4259  -38.4097 C   0  0  2  0  0  0  0  0  0  0  0  0
  -19.6469   19.8876  -38.7910 C   0  0  0  0  0  0  0  0  0  0  0  0
  -20.0744   20.1219  -40.2215 C   0  0  1  0  0  0  0  0  0  0  0  0
  -20.5937   21.5385  -40.3018 C   0  0  0  0  0  0  0  0  0  0  0  0
  -18.9560   19.9746  -41.1711 C   0  0  0  0  0  0  0  0  0  0  0  0
  -19.1471   20.2073  -42.3825 O   0  0  0  0  0  0  0  0  0  0  0  0
  -17.6787   19.5836  -40.7803 O   0  0  0  0  0  0  0  0  0  0  0  0
  -21.1580   19.1525  -40.6463 C   0  0  0  0  0  0  0  0  0  0  0  0
  -21.9322   18.7496  -39.4340 C   0  0  0  0  0  0  0  0  0  0  0  0
  -21.0878   17.8493  -38.5241 C   0  0  1  0  0  0  0  0  0  0  0  0
  -21.0814   16.4793  -39.1692 C   0  0  0  0  0  0  0  0  0  0  0  0
  -21.8212   17.7523  -37.2200 C   0  0  0  0  0  0  0  0  0  0  0  0
  -21.0403   17.0402  -36.1442 C   0  0  0  0  0  0  0  0  0  0  0  0
  -19.7999   17.8112  -35.8686 C   0  0  1  0  0  0  0  0  0  0  0  0
  -20.1422   18.9788  -34.9853 C   0  0  0  0  0  0  0  0  0  0  0  0
  1  2  1  0
  2  3  1  0
  2  4  1  0
  4  5  1  6
  4  6  1  0
  6  7  1  0
  7  8  1  0
  8  9  1  6
  8 10  1  0
 10 11  1  6
 11 12  1  0
 12 13  1  0
 13 14  1  6
 13 15  1  0
 15 16  1  6
 16 17  2  0
 16 18  1  0
 18 19  2  0
 19 20  1  0
 20 21  1  1
 21 22  1  0
 22 23  1  1
 22 24  1  0
 24 25  2  0
 24 26  1  0
 22 27  1  0
 27 28  1  0
 28 29  1  0
 29 30  1  6
 29 31  1  0
 31 32  1  0
 32 33  1  0
 33 34  1  1
 10  2  1  0
 33 13  1  0
 15  8  1  0
 33 19  1  0
 29 20  1  0
M  END
$$$$
