
     RDKit          3D

 21 22  0  0  0  0  0  0  0  0999 V2000
  -19.4869    3.6068  -33.8023 C   0  0  0  0  0  0  0  0  0  0  0  0
  -18.8162    3.5676  -32.4371 C   0  0  0  0  0  0  0  0  0  0  0  0
  -19.3098    4.7810  -31.6553 C   0  0  0  0  0  0  0  0  0  0  0  0
  -19.0760    2.3761  -31.7590 O   0  0  0  0  0  0  0  0  0  0  0  0
  -18.2497    1.2766  -31.6651 C   0  0  0  0  0  0  0  0  0  0  0  0
  -17.0503    1.3534  -30.9408 C   0  0  0  0  0  0  0  0  0  0  0  0
  -16.1784    0.2861  -30.8167 C   0  0  0  0  0  0  0  0  0  0  0  0
  -16.4677   -0.9145  -31.4126 C   0  0  0  0  0  0  0  0  0  0  0  0
  -15.5732   -2.0480  -31.4450 C   0  0  0  0  0  0  0  0  0  0  0  0
  -16.0768   -3.3526  -31.5982 C   0  0  0  0  0  0  0  0  0  0  0  0
  -15.1195   -4.2495  -31.6715 N   0  0  0  0  0  0  0  0  0  0  0  0
  -13.9546   -3.5305  -31.5658 C   0  0  0  0  0  0  0  0  0  0  0  0
  -14.2235   -2.1840  -31.4248 C   0  0  0  0  0  0  0  0  0  0  0  0
  -13.1973   -1.0941  -31.1844 C   0  0  0  0  0  0  0  0  0  0  0  0
  -12.7341   -0.5812  -32.4684 N   0  0  0  0  0  0  0  0  0  0  0  0
  -13.8794   -0.1793  -33.3018 C   0  0  0  0  0  0  0  0  0  0  0  0
  -12.0881   -1.7081  -33.2090 C   0  0  0  0  0  0  0  0  0  0  0  0
  -11.6206   -1.3477  -34.5691 C   0  0  0  0  0  0  0  0  0  0  0  0
  -10.6700   -2.1910  -35.2045 N   0  0  0  0  0  0  0  0  0  0  0  0
  -17.6588   -0.9748  -32.1207 C   0  0  0  0  0  0  0  0  0  0  0  0
  -18.5378    0.0768  -32.2560 C   0  0  0  0  0  0  0  0  0  0  0  0
  1  2  1  0
  2  3  1  0
  2  4  1  0
  4  5  1  0
  5  6  2  0
  6  7  1  0
  7  8  2  0
  8  9  1  0
  9 10  2  0
 10 11  1  0
 11 12  1  0
 12 13  2  0
 13 14  1  0
 14 15  1  0
 15 16  1  0
 15 17  1  0
 17 18  1  0
 18 19  1  0
  8 20  1  0
 20 21  2  0
 21  5  1  0
 13  9  1  0
M  END
$$$$
