
     RDKit          3D

 19 18  0  0  0  0  0  0  0  0999 V2000
  -18.5966   45.0376  -23.9012 C   0  0  0  0  0  0  0  0  0  0  0  0
  -19.7805   44.1574  -24.3171 C   0  0  0  0  0  0  0  0  0  0  0  0
  -19.6446   42.8211  -24.1608 N   0  0  0  0  0  0  0  0  0  0  0  0
  -19.1153   42.2050  -23.0631 C   0  0  0  0  0  0  0  0  0  0  0  0
  -18.0058   42.5399  -22.5634 N   0  0  0  0  0  0  0  0  0  0  0  0
  -17.2699   42.1245  -21.4908 C   0  0  0  0  0  0  0  0  0  0  0  0
  -17.2235   42.9533  -20.3472 C   0  0  0  0  0  0  0  0  0  0  0  0
  -16.5401   42.8181  -19.2308 C   0  0  0  0  0  0  0  0  0  0  0  0
  -15.7454   41.6988  -19.1313 N   0  0  0  0  0  0  0  0  0  0  0  0
  -15.7146   40.7902  -20.1936 C   0  0  0  0  0  0  0  0  0  0  0  0
  -16.4467   41.0295  -21.3089 C   0  0  0  0  0  0  0  0  0  0  0  0
  -19.7065   41.0788  -22.3526 N   0  0  0  0  0  0  0  0  0  0  0  0
  -19.5135   40.8309  -21.1410 C   0  0  0  0  0  0  0  0  0  0  0  0
  -19.2922   40.5108  -19.6951 N   0  0  0  0  0  0  0  0  0  0  0  0
  -20.0318   44.5297  -25.7752 C   0  0  0  0  0  0  0  0  0  0  0  0
  -21.1718   43.6381  -26.2557 C   0  0  0  0  0  0  0  0  0  0  0  0
  -20.4460   45.9601  -25.9149 C   0  0  0  0  0  0  0  0  0  0  0  0
  -18.8392   44.1415  -26.6104 C   0  0  0  0  0  0  0  0  0  0  0  0
  -18.7770   42.9496  -23.7032 O   0  0  0  0  0  0  0  0  0  0  0  0
  1  2  1  0
  2  3  1  0
  3  4  1  0
  4  5  2  0
  5  6  1  0
  6  7  2  0
  7  8  1  0
  8  9  2  0
  9 10  1  0
 10 11  2  0
  4 12  1  0
 12 13  1  0
 13 14  3  0
  2 15  1  0
 15 16  1  0
 15 17  1  0
 15 18  1  0
 11  6  1  0
M  END
$$$$
