
     RDKit          3D

 33 36  0  0  0  0  0  0  0  0999 V2000
  -10.2934   45.1805  -19.5844 C   0  0  0  0  0  0  0  0  0  0  0  0
  -11.5238   45.9536  -19.8212 N   0  0  0  0  0  0  0  0  0  0  0  0
  -12.7695   45.5529  -19.3039 C   0  0  0  0  0  0  0  0  0  0  0  0
  -12.7606   44.4873  -18.6036 O   0  0  0  0  0  0  0  0  0  0  0  0
  -14.0250   46.2301  -19.4901 C   0  0  0  0  0  0  0  0  0  0  0  0
  -14.9026   45.8117  -20.5304 N   0  0  0  0  0  0  0  0  0  0  0  0
  -16.2251   45.5381  -19.9437 C   0  0  0  0  0  0  0  0  0  0  0  0
  -16.2576   44.1624  -19.3356 C   0  0  0  0  0  0  0  0  0  0  0  0
  -16.4473   43.1541  -20.4693 C   0  0  0  0  0  0  0  0  0  0  0  0
  -17.7882   42.9932  -20.7885 O   0  0  0  0  0  0  0  0  0  0  0  0
  -18.3609   42.2861  -21.8028 C   0  0  0  0  0  0  0  0  0  0  0  0
  -18.5058   40.9171  -21.8540 C   0  0  0  0  0  0  0  0  0  0  0  0
  -19.0902   40.2531  -22.8986 C   0  0  0  0  0  0  0  0  0  0  0  0
  -19.2458   38.8748  -22.9763 C   0  0  0  0  0  0  0  0  0  0  0  0
  -18.7680   38.0635  -21.9196 N   0  0  0  0  0  0  0  0  0  0  0  0
  -18.9835   36.6751  -21.7867 C   0  0  0  0  0  0  0  0  0  0  0  0
  -20.1355   36.0255  -22.0620 C   0  0  0  0  0  0  0  0  0  0  0  0
  -20.2572   34.6355  -21.9106 C   0  0  0  0  0  0  0  0  0  0  0  0
  -19.1820   33.9135  -21.4717 C   0  0  0  0  0  0  0  0  0  0  0  0
  -18.0163   34.5466  -21.1899 C   0  0  0  0  0  0  0  0  0  0  0  0
  -16.6320   33.6348  -20.6300 Cl  0  0  0  0  0  0  0  0  0  0  0  0
  -17.8967   35.9076  -21.3383 C   0  0  0  0  0  0  0  0  0  0  0  0
  -16.7165   36.5201  -21.0487 F   0  0  0  0  0  0  0  0  0  0  0  0
  -19.8379   38.3632  -24.0647 N   0  0  0  0  0  0  0  0  0  0  0  0
  -20.2864   39.0926  -25.0777 C   0  0  0  0  0  0  0  0  0  0  0  0
  -20.1543   40.4272  -25.0412 N   0  0  0  0  0  0  0  0  0  0  0  0
  -19.5705   40.9919  -23.9780 C   0  0  0  0  0  0  0  0  0  0  0  0
  -19.4208   42.3736  -23.9197 C   0  0  0  0  0  0  0  0  0  0  0  0
  -18.8401   43.0283  -22.8824 C   0  0  0  0  0  0  0  0  0  0  0  0
  -18.7174   44.4161  -22.8820 O   0  0  0  0  0  0  0  0  0  0  0  0
  -19.6611   45.3228  -23.3616 C   0  0  0  0  0  0  0  0  0  0  0  0
  -15.7100   43.7590  -21.6511 C   0  0  0  0  0  0  0  0  0  0  0  0
  -14.4896   44.5563  -21.1526 C   0  0  0  0  0  0  0  0  0  0  0  0
  1  2  1  0
  2  3  1  0
  3  4  2  0
  3  5  1  0
  5  6  1  0
  6  7  1  0
  7  8  1  0
  8  9  1  0
  9 10  1  0
 10 11  1  0
 11 12  2  0
 12 13  1  0
 13 14  2  0
 14 15  1  0
 15 16  1  0
 16 17  2  0
 17 18  1  0
 18 19  2  0
 19 20  1  0
 20 21  1  0
 20 22  2  0
 22 23  1  0
 14 24  1  0
 24 25  2  0
 25 26  1  0
 26 27  2  0
 27 28  1  0
 28 29  2  0
 29 30  1  0
 30 31  1  0
  9 32  1  0
 32 33  1  0
 33  6  1  0
 29 11  1  0
 27 13  1  0
 22 16  1  0
M  END
$$$$
