
     RDKit          3D

 32 36  0  0  0  0  0  0  0  0999 V2000
   -9.6564   16.8608  -45.6055 C   0  0  0  0  0  0  0  0  0  0  0  0
   -9.3968   17.6094  -44.3429 C   0  0  0  0  0  0  0  0  0  0  0  0
   -9.5239   19.1178  -44.6210 C   0  0  0  0  0  0  0  0  0  0  0  0
  -10.3647   17.3263  -43.2547 C   0  0  0  0  0  0  0  0  0  0  0  0
  -10.2658   17.8175  -41.9694 C   0  0  0  0  0  0  0  0  0  0  0  0
  -11.3377   17.3304  -41.2431 C   0  0  0  0  0  0  0  0  0  0  0  0
  -11.7028   17.5543  -39.8272 C   0  0  0  0  0  0  0  0  0  0  0  0
  -12.9851   16.9897  -39.4919 N   0  0  0  0  0  0  0  0  0  0  0  0
  -14.1334   17.7387  -39.8545 C   0  0  0  0  0  0  0  0  0  0  0  0
  -14.0681   18.6800  -40.8367 N   0  0  0  0  0  0  0  0  0  0  0  0
  -15.1236   19.4171  -41.2156 C   0  0  0  0  0  0  0  0  0  0  0  0
  -15.0294   20.3847  -42.2525 N   0  0  0  0  0  0  0  0  0  0  0  0
  -16.1456   21.2382  -42.5592 C   0  0  0  0  0  0  0  0  0  0  0  0
  -16.7962   22.1498  -41.7717 C   0  0  0  0  0  0  0  0  0  0  0  0
  -17.8125   22.7388  -42.4939 C   0  0  0  0  0  0  0  0  0  0  0  0
  -18.7781   23.7824  -42.0360 C   0  0  0  0  0  0  0  0  0  0  0  0
  -18.5396   25.2114  -42.2482 C   0  0  0  0  0  0  0  0  0  0  0  0
  -19.4653   24.4990  -43.1913 C   0  0  0  0  0  0  0  0  0  0  0  0
  -17.7477   22.1631  -43.7063 N   0  0  0  0  0  0  0  0  0  0  0  0
  -16.7649   21.2712  -43.7624 N   0  0  0  0  0  0  0  0  0  0  0  0
  -16.3249   19.1907  -40.5605 C   0  0  0  0  0  0  0  0  0  0  0  0
  -16.4411   18.2519  -39.5611 C   0  0  0  0  0  0  0  0  0  0  0  0
  -17.6450   17.9963  -38.8667 N   0  0  0  0  0  0  0  0  0  0  0  0
  -17.6093   17.0895  -37.7132 C   0  0  0  0  0  0  0  0  0  0  0  0
  -18.9810   16.7996  -37.2101 C   0  0  0  0  0  0  0  0  0  0  0  0
  -19.7857   17.9710  -36.9668 N   0  0  0  0  0  0  0  0  0  0  0  0
  -19.7373   18.4108  -35.5899 C   0  0  0  0  0  0  0  0  0  0  0  0
  -19.6104   19.0055  -37.9288 C   0  0  0  0  0  0  0  0  0  0  0  0
  -18.9140   18.5537  -39.1965 C   0  0  0  0  0  0  0  0  0  0  0  0
  -15.3093   17.5614  -39.2573 N   0  0  0  0  0  0  0  0  0  0  0  0
  -12.0311   16.5840  -42.0783 O   0  0  0  0  0  0  0  0  0  0  0  0
  -11.4809   16.5671  -43.2604 N   0  0  0  0  0  0  0  0  0  0  0  0
  1  2  1  0
  2  3  1  0
  2  4  1  0
  4  5  1  0
  5  6  2  0
  6  7  1  0
  7  8  1  0
  8  9  1  0
  9 10  2  0
 10 11  1  0
 11 12  1  0
 12 13  1  0
 13 14  1  0
 14 15  2  0
 15 16  1  0
 16 17  1  0
 17 18  1  0
 15 19  1  0
 19 20  1  0
 11 21  2  0
 21 22  1  0
 22 23  1  0
 23 24  1  0
 24 25  1  0
 25 26  1  0
 26 27  1  0
 26 28  1  0
 28 29  1  0
 22 30  2  0
  6 31  1  0
 31 32  1  0
 32  4  2  0
 30  9  1  0
 20 13  2  0
 29 23  1  0
 18 16  1  0
M  END
$$$$
