
     RDKit          3D

 18 20  0  0  0  0  0  0  0  0999 V2000
  -19.8891   31.8327  -21.9038 O   0  0  0  0  0  0  0  0  0  0  0  0
  -19.8609   33.0600  -22.1499 C   0  0  0  0  0  0  0  0  0  0  0  0
  -19.0715   33.5829  -23.2917 C   0  0  0  0  0  0  0  0  0  0  0  0
  -18.2120   34.7057  -22.7940 C   0  0  0  0  0  0  0  0  0  0  0  0
  -18.9476   35.6987  -22.0076 C   0  0  0  0  0  0  0  0  0  0  0  0
  -18.5422   37.1122  -21.8751 C   0  0  0  0  0  0  0  0  0  0  0  0
  -19.3220   38.0428  -21.2672 C   0  0  0  0  0  0  0  0  0  0  0  0
  -18.9237   39.3633  -21.1489 C   0  0  0  0  0  0  0  0  0  0  0  0
  -17.7089   39.7835  -21.6494 C   0  0  0  0  0  0  0  0  0  0  0  0
  -17.2813   41.1488  -21.5349 N   0  0  0  0  0  0  0  0  0  0  0  0
  -16.3609   41.8127  -22.2361 C   0  0  0  0  0  0  0  0  0  0  0  0
  -16.2846   43.1051  -21.7788 C   0  0  0  0  0  0  0  0  0  0  0  0
  -17.1685   43.2294  -20.7882 N   0  0  0  0  0  0  0  0  0  0  0  0
  -17.7703   42.0384  -20.6450 C   0  0  0  0  0  0  0  0  0  0  0  0
  -16.9244   38.8300  -22.2650 C   0  0  0  0  0  0  0  0  0  0  0  0
  -17.3314   37.4954  -22.3822 C   0  0  0  0  0  0  0  0  0  0  0  0
  -20.0281   35.3352  -21.3782 N   0  0  0  0  0  0  0  0  0  0  0  0
  -20.5544   34.0468  -21.3924 N   0  0  0  0  0  0  0  0  0  0  0  0
  1  2  2  0
  2  3  1  0
  3  4  1  0
  4  5  1  0
  5  6  1  0
  6  7  2  0
  7  8  1  0
  8  9  2  0
  9 10  1  0
 10 11  1  0
 11 12  2  0
 12 13  1  0
 13 14  2  0
  9 15  1  0
 15 16  2  0
  5 17  2  0
 17 18  1  0
 18  2  1  0
 16  6  1  0
 14 10  1  0
M  END
$$$$
