
     RDKit          3D

 34 36  0  0  0  0  0  0  0  0999 V2000
  -18.6511   19.7760  -37.4130 Cl  0  0  0  0  0  0  0  0  0  0  0  0
  -18.6514   19.7763  -37.4133 Cl  0  0  0  0  0  0  0  0  0  0  0  0
  -17.8805   18.4130  -34.5148 O   0  0  0  0  0  0  0  0  0  0  0  0
  -17.1439   19.3368  -34.0892 C   0  0  0  0  0  0  0  0  0  0  0  0
  -17.5658   20.6602  -34.4508 N   0  0  0  0  0  0  0  0  0  0  0  0
  -18.7279   20.9397  -35.2341 C   0  0  0  0  0  0  0  0  0  0  0  0
  -18.6811   20.3090  -36.6293 C   0  0  0  0  0  0  0  0  0  0  0  0
  -19.9758   20.7023  -37.3164 C   0  0  0  0  0  0  0  0  0  0  0  0
  -20.0853   20.1780  -38.6589 N   0  0  0  0  0  0  0  0  0  0  0  0
  -21.3384   20.5643  -39.2115 C   0  0  0  0  0  0  0  0  0  0  0  0
  -21.2095   21.9695  -39.7504 C   0  0  0  0  0  0  0  0  0  0  0  0
  -20.3613   21.8764  -41.0002 C   0  0  0  0  0  0  0  0  0  0  0  0
  -19.2627   20.8639  -40.8725 C   0  0  0  0  0  0  0  0  0  0  0  0
  -18.9472   20.4949  -39.4533 C   0  0  0  0  0  0  0  0  0  0  0  0
  -19.8961   23.1455  -41.3002 O   0  0  0  0  0  0  0  0  0  0  0  0
  -21.0647   23.8064  -41.7493 C   0  0  0  0  0  0  0  0  0  0  0  0
  -21.7296   22.7759  -42.6013 C   0  0  0  0  0  0  0  0  0  0  0  0
  -22.6043   22.8751  -43.6475 C   0  0  0  0  0  0  0  0  0  0  0  0
  -23.0185   21.6820  -44.2342 C   0  0  0  0  0  0  0  0  0  0  0  0
  -22.5784   20.4618  -43.7942 C   0  0  0  0  0  0  0  0  0  0  0  0
  -21.7018   20.4052  -42.7423 C   0  0  0  0  0  0  0  0  0  0  0  0
  -21.2640   21.5712  -42.1286 C   0  0  0  0  0  0  0  0  0  0  0  0
  -15.9481   19.0768  -33.2865 C   0  0  1  0  0  0  0  0  0  0  0  0
  -16.1598   19.7335  -31.9130 C   0  0  0  0  0  0  0  0  0  0  0  0
  -16.3817   18.6229  -30.9390 C   0  0  0  0  0  0  0  0  0  0  0  0
  -16.0971   17.3748  -31.7222 C   0  0  0  0  0  0  0  0  0  0  0  0
  -15.6374   17.7262  -33.0196 N   0  0  0  0  0  0  0  0  0  0  0  0
  -15.7676   16.7702  -34.0449 C   0  0  0  0  0  0  0  0  0  0  0  0
  -14.9289   15.5761  -33.6462 C   0  0  0  0  0  0  0  0  0  0  0  0
  -13.6018   15.4990  -34.0091 C   0  0  0  0  0  0  0  0  0  0  0  0
  -12.7887   14.4372  -33.6775 C   0  0  0  0  0  0  0  0  0  0  0  0
  -13.3397   13.4073  -32.9470 C   0  0  0  0  0  0  0  0  0  0  0  0
  -14.6656   13.4613  -32.5719 C   0  0  0  0  0  0  0  0  0  0  0  0
  -15.4577   14.5340  -32.9159 C   0  0  0  0  0  0  0  0  0  0  0  0
  3  4  2  0
  4  5  1  0
  5  6  1  0
  6  7  1  0
  7  8  1  0
  8  9  1  0
  9 10  1  0
 10 11  1  0
 11 12  1  0
 12 13  1  0
 13 14  1  0
 12 15  1  0
 15 16  1  0
 16 17  1  0
 17 18  2  0
 18 19  1  0
 19 20  2  0
 20 21  1  0
 21 22  2  0
 23  4  1  6
 23 24  1  0
 24 25  1  0
 25 26  1  0
 26 27  1  0
 27 28  1  0
 28 29  1  0
 29 30  2  0
 30 31  1  0
 31 32  2  0
 32 33  1  0
 33 34  2  0
 14  9  1  0
 22 17  1  0
 27 23  1  0
 34 29  1  0
 22 12  1  0
M  END
$$$$
