
     RDKit          3D

 20 21  0  0  0  0  0  0  0  0999 V2000
  -21.1322   32.5946  -20.7168 C   0  0  0  0  0  0  0  0  0  0  0  0
  -20.0386   33.4881  -21.1826 C   0  0  0  0  0  0  0  0  0  0  0  0
  -18.8061   33.6102  -20.6406 N   0  0  0  0  0  0  0  0  0  0  0  0
  -18.1051   34.4869  -21.3102 N   0  0  0  0  0  0  0  0  0  0  0  0
  -18.8563   34.9820  -22.3302 C   0  0  0  0  0  0  0  0  0  0  0  0
  -18.3358   36.2056  -23.5235 S   0  0  0  0  0  0  0  0  0  0  0  0
  -17.2343   37.4187  -22.7949 C   0  0  0  0  0  0  0  0  0  0  0  0
  -18.0451   38.4428  -22.0980 C   0  0  0  0  0  0  0  0  0  0  0  0
  -19.0781   38.0879  -21.4940 O   0  0  0  0  0  0  0  0  0  0  0  0
  -17.7313   39.8261  -22.0632 N   0  0  0  0  0  0  0  0  0  0  0  0
  -18.4376   40.8027  -21.3056 C   0  0  0  0  0  0  0  0  0  0  0  0
  -17.5649   41.7277  -20.5087 C   0  0  0  0  0  0  0  0  0  0  0  0
  -16.6261   42.5437  -21.3783 C   0  0  0  0  0  0  0  0  0  0  0  0
  -17.5334   43.4691  -22.1958 C   0  0  0  0  0  0  0  0  0  0  0  0
  -18.3817   42.5517  -23.0541 C   0  0  0  0  0  0  0  0  0  0  0  0
  -19.2368   43.4541  -23.9246 C   0  0  0  0  0  0  0  0  0  0  0  0
  -19.2661   41.6508  -22.2491 C   0  0  0  0  0  0  0  0  0  0  0  0
  -20.0016   40.7569  -23.2504 C   0  0  0  0  0  0  0  0  0  0  0  0
  -20.0392   34.3512  -22.2280 N   0  0  0  0  0  0  0  0  0  0  0  0
  -21.1232   34.5463  -23.0709 N   0  0  0  0  0  0  0  0  0  0  0  0
  1  2  1  0
  2  3  2  0
  3  4  1  0
  4  5  2  0
  5  6  1  0
  6  7  1  0
  7  8  1  0
  8  9  2  0
  8 10  1  0
 10 11  1  0
 11 12  1  0
 12 13  1  0
 13 14  1  0
 14 15  1  0
 15 16  1  0
 15 17  1  0
 17 18  1  0
  5 19  1  0
 19 20  1  0
 19  2  1  0
 17 11  1  0
M  END
$$$$
