
     RDKit          3D

 37 40  0  0  0  0  0  0  0  0999 V2000
  -15.1982   14.1990  -33.4895 C   0  0  0  0  0  0  0  0  0  0  0  0
  -16.2813   14.4792  -32.6295 O   0  0  0  0  0  0  0  0  0  0  0  0
  -16.0054   15.6935  -32.0105 C   0  0  0  0  0  0  0  0  0  0  0  0
  -17.1297   16.0749  -31.0537 C   0  0  0  0  0  0  0  0  0  0  0  0
  -17.2043   17.4965  -30.9034 N   0  0  0  0  0  0  0  0  0  0  0  0
  -17.3588   18.4165  -31.9677 C   0  0  0  0  0  0  0  0  0  0  0  0
  -18.0403   18.0775  -33.1316 C   0  0  0  0  0  0  0  0  0  0  0  0
  -18.2003   18.9226  -34.1900 C   0  0  0  0  0  0  0  0  0  0  0  0
  -18.8801   18.6251  -35.3919 N   0  0  0  0  0  0  0  0  0  0  0  0
  -19.5133   17.4201  -35.7330 C   0  0  0  0  0  0  0  0  0  0  0  0
  -19.5747   16.5061  -34.9084 O   0  0  0  0  0  0  0  0  0  0  0  0
  -20.0767   17.2956  -37.0608 N   0  0  0  0  0  0  0  0  0  0  0  0
  -20.4759   16.0241  -37.6184 C   0  0  0  0  0  0  0  0  0  0  0  0
  -21.4609   16.1723  -38.7595 C   0  0  0  0  0  0  0  0  0  0  0  0
  -22.3393   17.3933  -38.5730 C   0  0  0  0  0  0  0  0  0  0  0  0
  -21.4048   18.5617  -38.6272 C   0  0  0  0  0  0  0  0  0  0  0  0
  -21.6131   19.6603  -39.3763 C   0  0  0  0  0  0  0  0  0  0  0  0
  -20.6513   20.6985  -39.3526 C   0  0  0  0  0  0  0  0  0  0  0  0
  -21.0265   21.9015  -40.1031 C   0  0  0  0  0  0  0  0  0  0  0  0
  -21.2993   21.7053  -41.4809 N   0  0  0  0  0  0  0  0  0  0  0  0
  -22.6576   21.9964  -42.0417 C   0  0  0  0  0  0  0  0  0  0  0  0
  -22.4297   22.5687  -43.4002 C   0  0  0  0  0  0  0  0  0  0  0  0
  -21.8313   21.6243  -44.3236 N   0  0  0  0  0  0  0  0  0  0  0  0
  -22.8801   21.0013  -45.1078 C   0  0  0  0  0  0  0  0  0  0  0  0
  -21.1330   20.5575  -43.6365 C   0  0  0  0  0  0  0  0  0  0  0  0
  -20.4202   21.2283  -42.4697 C   0  0  0  0  0  0  0  0  0  0  0  0
  -19.1995   21.3189  -42.4418 O   0  0  0  0  0  0  0  0  0  0  0  0
  -19.5339   20.5616  -38.5776 C   0  0  0  0  0  0  0  0  0  0  0  0
  -18.4605   21.5393  -38.5709 C   0  0  0  0  0  0  0  0  0  0  0  0
  -17.7220   21.8077  -39.4986 O   0  0  0  0  0  0  0  0  0  0  0  0
  -19.3406   19.4227  -37.8125 N   0  0  0  0  0  0  0  0  0  0  0  0
  -20.2641   18.4762  -37.8594 C   0  0  0  0  0  0  0  0  0  0  0  0
  -17.6490   20.1517  -34.0587 N   0  0  0  0  0  0  0  0  0  0  0  0
  -16.9817   20.5251  -32.9545 C   0  0  0  0  0  0  0  0  0  0  0  0
  -16.8043   19.6928  -31.8707 C   0  0  0  0  0  0  0  0  0  0  0  0
  -16.1065   20.0629  -30.6983 C   0  0  0  0  0  0  0  0  0  0  0  0
  -15.5182   20.3872  -29.7325 N   0  0  0  0  0  0  0  0  0  0  0  0
  1  2  1  0
  2  3  1  0
  3  4  1  0
  4  5  1  0
  5  6  1  0
  6  7  2  0
  7  8  1  0
  8  9  1  0
  9 10  1  0
 10 11  2  0
 10 12  1  0
 12 13  1  0
 13 14  1  0
 14 15  1  0
 15 16  1  0
 16 17  2  0
 17 18  1  0
 18 19  1  0
 19 20  1  0
 20 21  1  0
 21 22  1  0
 22 23  1  0
 23 24  1  0
 23 25  1  0
 25 26  1  0
 26 27  2  0
 18 28  2  0
 28 29  1  0
 29 30  2  0
 28 31  1  0
 31 32  2  0
  8 33  2  0
 33 34  1  0
 34 35  2  0
 35 36  1  0
 36 37  3  0
 35  6  1  0
 32 12  1  0
 32 16  1  0
 26 20  1  0
M  END
$$$$
