
     RDKit          3D

 23 24  0  0  0  0  0  0  0  0999 V2000
  -24.0890   23.0653  -33.6195 C   0  0  0  0  0  0  0  0  0  0  0  0
  -24.0254   22.3782  -32.2940 C   0  0  0  0  0  0  0  0  0  0  0  0
  -22.9267   22.5661  -31.4803 C   0  0  0  0  0  0  0  0  0  0  0  0
  -22.9072   21.9139  -30.2653 C   0  0  0  0  0  0  0  0  0  0  0  0
  -23.9595   21.0959  -29.8760 C   0  0  0  0  0  0  0  0  0  0  0  0
  -25.0574   20.9087  -30.6902 C   0  0  0  0  0  0  0  0  0  0  0  0
  -26.1438   20.0581  -30.2772 N   0  0  0  0  0  0  0  0  0  0  0  0
  -26.1047   19.4009  -29.0602 N   0  0  0  0  0  0  0  0  0  0  0  0
  -27.0430   18.5503  -28.6518 C   0  0  0  0  0  0  0  0  0  0  0  0
  -27.0499   17.2620  -29.2177 C   0  0  0  0  0  0  0  0  0  0  0  0
  -26.9455   17.3215  -30.5641 O   0  0  0  0  0  0  0  0  0  0  0  0
  -27.1401   15.9241  -28.7095 C   0  0  0  0  0  0  0  0  0  0  0  0
  -26.9922   15.2405  -27.5728 C   0  0  0  0  0  0  0  0  0  0  0  0
  -27.1775   13.9152  -27.5028 C   0  0  0  0  0  0  0  0  0  0  0  0
  -27.5301   13.2304  -28.6272 C   0  0  0  0  0  0  0  0  0  0  0  0
  -27.6094   14.5218  -29.8696 S   0  0  0  0  0  0  0  0  0  0  0  0
  -27.9185   19.1177  -27.6666 C   0  0  0  0  0  0  0  0  0  0  0  0
  -29.1519   19.1377  -27.7201 O   0  0  0  0  0  0  0  0  0  0  0  0
  -27.3579   19.7712  -26.4168 C   0  0  0  0  0  0  0  0  0  0  0  0
  -28.3525   20.1491  -25.5629 F   0  0  0  0  0  0  0  0  0  0  0  0
  -26.5621   18.7934  -25.8343 F   0  0  0  0  0  0  0  0  0  0  0  0
  -26.5434   20.8157  -26.7550 F   0  0  0  0  0  0  0  0  0  0  0  0
  -25.0754   21.5613  -31.9044 C   0  0  0  0  0  0  0  0  0  0  0  0
  1  2  1  0
  2  3  2  0
  3  4  1  0
  4  5  2  0
  5  6  1  0
  6  7  1  0
  7  8  1  0
  8  9  2  0
  9 10  1  0
 10 11  2  0
 10 12  1  0
 12 13  2  0
 13 14  1  0
 14 15  2  0
 15 16  1  0
  9 17  1  0
 17 18  2  0
 17 19  1  0
 19 20  1  0
 19 21  1  0
 19 22  1  0
  6 23  2  0
 23  2  1  0
 16 12  1  0
M  END
$$$$
