
     RDKit          3D

 28 30  0  0  0  0  0  0  0  0999 V2000
   -0.4982   17.8601  -16.4305 C   0  0  0  0  0  0  0  0  0  0  0  0
   -0.4394   17.7504  -17.9310 C   0  0  0  0  0  0  0  0  0  0  0  0
   -1.4904   17.0882  -18.5778 C   0  0  0  0  0  0  0  0  0  0  0  0
   -2.4596   16.5339  -17.7749 F   0  0  0  0  0  0  0  0  0  0  0  0
   -1.5669   16.9867  -19.9395 C   0  0  0  0  0  0  0  0  0  0  0  0
   -0.5949   17.5433  -20.7206 C   0  0  0  0  0  0  0  0  0  0  0  0
   -0.6400   17.4577  -22.1975 C   0  0  0  0  0  0  0  0  0  0  0  0
   -0.2924   18.4676  -22.8370 O   0  0  0  0  0  0  0  0  0  0  0  0
   -1.0452   16.3223  -22.9019 N   0  0  0  0  0  0  0  0  0  0  0  0
   -1.1594   16.2430  -24.3425 C   0  0  0  0  0  0  0  0  0  0  0  0
   -1.9343   17.1898  -25.1307 C   0  0  0  0  0  0  0  0  0  0  0  0
   -2.5834   15.8540  -24.7969 C   0  0  0  0  0  0  0  0  0  0  0  0
    0.4348   18.1899  -20.1065 C   0  0  0  0  0  0  0  0  0  0  0  0
    0.5278   18.3012  -18.7096 C   0  0  0  0  0  0  0  0  0  0  0  0
    1.6715   19.0692  -18.1983 C   0  0  0  0  0  0  0  0  0  0  0  0
    2.8477   18.5219  -17.7918 C   0  0  0  0  0  0  0  0  0  0  0  0
    3.8652   19.3854  -17.3903 C   0  0  0  0  0  0  0  0  0  0  0  0
    3.7533   20.7549  -17.3818 C   0  0  0  0  0  0  0  0  0  0  0  0
    4.8792   21.5746  -16.9426 C   0  0  0  0  0  0  0  0  0  0  0  0
    6.0165   21.1506  -17.2474 O   0  0  0  0  0  0  0  0  0  0  0  0
    4.7528   22.7780  -16.2175 N   0  0  0  0  0  0  0  0  0  0  0  0
    5.6633   23.8593  -16.0832 C   0  0  0  0  0  0  0  0  0  0  0  0
    5.8713   24.8190  -17.1720 C   0  0  0  0  0  0  0  0  0  0  0  0
    4.6854   25.5723  -17.6806 C   0  0  0  0  0  0  0  0  0  0  0  0
    6.4219   24.0363  -18.3954 C   0  0  0  0  0  0  0  0  0  0  0  0
    7.0095   25.7941  -16.8298 C   0  0  0  0  0  0  0  0  0  0  0  0
    2.5407   21.2577  -17.8051 C   0  0  0  0  0  0  0  0  0  0  0  0
    1.5534   20.4418  -18.1929 N   0  0  0  0  0  0  0  0  0  0  0  0
  1  2  1  0
  2  3  2  0
  3  4  1  0
  3  5  1  0
  5  6  2  0
  6  7  1  0
  7  8  2  0
  7  9  1  0
  9 10  1  0
 10 11  1  0
 11 12  1  0
  6 13  1  0
 13 14  2  0
 14 15  1  0
 15 16  2  0
 16 17  1  0
 17 18  2  0
 18 19  1  0
 19 20  2  0
 19 21  1  0
 21 22  1  0
 22 23  1  0
 23 24  1  0
 23 25  1  0
 23 26  1  0
 18 27  1  0
 27 28  2  0
 14  2  1  0
 28 15  1  0
 12 10  1  0
M  END
$$$$
