
     RDKit          3D

 42 45  0  0  0  0  0  0  0  0999 V2000
  -17.9958   20.0446  -30.5633 C   0  0  0  0  0  0  0  0  0  0  0  0
  -17.8361   21.4532  -31.0697 C   0  0  0  0  0  0  0  0  0  0  0  0
  -16.5435   21.6348  -31.8376 C   0  0  0  0  0  0  0  0  0  0  0  0
  -17.6391   22.1968  -29.8603 O   0  0  0  0  0  0  0  0  0  0  0  0
  -18.9920   22.0470  -31.7314 C   0  0  0  0  0  0  0  0  0  0  0  0
  -19.6258   23.1651  -31.1484 C   0  0  0  0  0  0  0  0  0  0  0  0
  -20.6697   23.8346  -31.6969 C   0  0  0  0  0  0  0  0  0  0  0  0
  -21.1628   23.4103  -32.9095 C   0  0  0  0  0  0  0  0  0  0  0  0
  -20.5762   22.3248  -33.5124 C   0  0  0  0  0  0  0  0  0  0  0  0
  -19.4921   21.6305  -32.9386 C   0  0  0  0  0  0  0  0  0  0  0  0
  -18.9949   20.4618  -33.6333 C   0  0  0  0  0  0  0  0  0  0  0  0
  -19.6787   19.1534  -33.3369 C   0  0  0  0  0  0  0  0  0  0  0  0
  -19.0198   18.0342  -34.1177 C   0  0  1  0  0  0  0  0  0  0  0  0
  -19.8126   16.4352  -33.7949 S   0  0  0  0  0  0  0  0  0  0  0  0
  -21.4917   16.4361  -34.4295 C   0  0  0  0  0  0  0  0  0  0  0  0
  -22.0776   15.0414  -34.1302 C   0  0  0  0  0  0  0  0  0  0  0  0
  -21.3306   13.9054  -34.7655 C   0  0  0  0  0  0  0  0  0  0  0  0
  -21.8305   12.5676  -34.5149 C   0  0  0  0  0  0  0  0  0  0  0  0
  -22.8101   12.2936  -33.8050 O   0  0  0  0  0  0  0  0  0  0  0  0
  -21.1710   11.4881  -35.1110 O   0  0  0  0  0  1  0  0  0  0  0  0
  -23.5365   14.9388  -33.9404 C   0  0  0  0  0  0  0  0  0  0  0  0
  -22.6251   14.8535  -32.7830 C   0  0  0  0  0  0  0  0  0  0  0  0
  -18.9260   18.3135  -35.5689 C   0  0  0  0  0  0  0  0  0  0  0  0
  -20.0541   18.7554  -36.2330 C   0  0  0  0  0  0  0  0  0  0  0  0
  -20.0056   19.0153  -37.5899 C   0  0  0  0  0  0  0  0  0  0  0  0
  -18.8033   18.8251  -38.2748 C   0  0  0  0  0  0  0  0  0  0  0  0
  -17.6716   18.3872  -37.6346 C   0  0  0  0  0  0  0  0  0  0  0  0
  -16.3872   18.1628  -38.2875 C   0  0  0  0  0  0  0  0  0  0  0  0
  -16.1695   18.3559  -39.5677 C   0  0  0  0  0  0  0  0  0  0  0  0
  -14.8428   18.1082  -40.1635 C   0  0  0  0  0  0  0  0  0  0  0  0
  -14.6884   18.3398  -41.5074 C   0  0  0  0  0  0  0  0  0  0  0  0
  -13.4631   18.1250  -42.1484 C   0  0  0  0  0  0  0  0  0  0  0  0
  -12.3995   17.6704  -41.3999 C   0  0  0  0  0  0  0  0  0  0  0  0
  -11.1514   17.4353  -41.9717 C   0  0  0  0  0  0  0  0  0  0  0  0
  -10.0928   16.9815  -41.2160 C   0  0  0  0  0  0  0  0  0  0  0  0
  -10.2725   16.7549  -39.8619 C   0  0  0  0  0  0  0  0  0  0  0  0
   -8.9033   16.1813  -38.9496 Cl  0  0  0  0  0  0  0  0  0  0  0  0
  -11.5085   16.9920  -39.3172 C   0  0  0  0  0  0  0  0  0  0  0  0
  -12.5860   17.4458  -40.0471 C   0  0  0  0  0  0  0  0  0  0  0  0
  -13.7964   17.6684  -39.4622 N   0  0  0  0  0  0  0  0  0  0  0  0
  -17.7506   18.1318  -36.2610 C   0  0  0  0  0  0  0  0  0  0  0  0
  -18.0631   18.5112  -35.4434 Na  0  0  0  0  0 15  0  0  0  0  0  0
  1  2  1  0
  2  3  1  0
  2  4  1  0
  2  5  1  0
  5  6  2  0
  6  7  1  0
  7  8  2  0
  8  9  1  0
  9 10  2  0
 10 11  1  0
 11 12  1  0
 13 12  1  1
 13 14  1  0
 14 15  1  0
 15 16  1  0
 16 17  1  0
 17 18  1  0
 18 19  2  0
 18 20  1  0
 16 21  1  0
 21 22  1  0
 13 23  1  0
 23 24  2  0
 24 25  1  0
 25 26  2  0
 26 27  1  0
 27 28  1  0
 28 29  2  0
 29 30  1  0
 30 31  2  0
 31 32  1  0
 32 33  2  0
 33 34  1  0
 34 35  2  0
 35 36  1  0
 36 37  1  0
 36 38  2  0
 38 39  1  0
 39 40  2  0
 27 41  2  0
 10  5  1  0
 22 16  1  0
 41 23  1  0
 40 30  1  0
 39 33  1  0
M  CHG  2  20  -1  42   1
M  END
$$$$
