
     RDKit          3D

 44 48  0  0  0  0  0  0  0  0999 V2000
  -27.4262   15.0651  -29.6301 C   0  0  0  0  0  0  0  0  0  0  0  0
  -26.8118   14.9386  -30.8597 O   0  0  0  0  0  0  0  0  0  0  0  0
  -25.5153   14.6509  -30.7737 N   0  0  0  0  0  0  0  0  0  0  0  0
  -24.6264   15.1186  -31.7796 C   0  0  0  0  0  0  0  0  0  0  0  0
  -24.4803   14.5093  -32.8781 O   0  0  0  0  0  0  0  0  0  0  0  0
  -23.8828   16.3055  -31.5372 N   0  0  0  0  0  0  0  0  0  0  0  0
  -22.9570   16.7620  -32.5184 C   0  0  0  0  0  0  0  0  0  0  0  0
  -22.9186   18.0876  -32.8529 C   0  0  0  0  0  0  0  0  0  0  0  0
  -21.9982   18.5006  -33.8191 C   0  0  0  0  0  0  0  0  0  0  0  0
  -21.1261   17.6761  -34.4626 C   0  0  0  0  0  0  0  0  0  0  0  0
  -20.1468   18.0316  -35.4675 C   0  0  0  0  0  0  0  0  0  0  0  0
  -18.3990   17.4821  -35.2591 S   0  0  0  0  0  0  0  0  0  0  0  0
  -17.8053   18.2145  -36.7145 C   0  0  0  0  0  0  0  0  0  0  0  0
  -18.8859   18.8116  -37.2739 C   0  0  0  0  0  0  0  0  0  0  0  0
  -20.0773   18.7061  -36.6180 C   0  0  0  0  0  0  0  0  0  0  0  0
  -21.3506   19.3432  -37.1825 C   0  0  0  0  0  0  0  0  0  0  0  0
  -21.6953   18.7976  -38.4546 N   0  0  0  0  0  0  0  0  0  0  0  0
  -22.9220   19.3647  -38.9175 C   0  0  0  0  0  0  0  0  0  0  0  0
  -21.7730   17.3577  -38.3632 C   0  0  0  0  0  0  0  0  0  0  0  0
  -18.6055   19.4421  -38.5066 C   0  0  0  0  0  0  0  0  0  0  0  0
  -19.4456   20.0571  -39.1964 O   0  0  0  0  0  0  0  0  0  0  0  0
  -17.3739   19.4079  -39.0120 N   0  0  0  0  0  0  0  0  0  0  0  0
  -17.0898   20.0586  -40.2744 C   0  0  0  0  0  0  0  0  0  0  0  0
  -15.9732   19.7402  -41.0132 C   0  0  0  0  0  0  0  0  0  0  0  0
  -15.7015   20.3623  -42.2149 C   0  0  0  0  0  0  0  0  0  0  0  0
  -16.5626   21.3308  -42.7005 C   0  0  0  0  0  0  0  0  0  0  0  0
  -16.3174   21.9781  -43.9099 O   0  0  0  0  0  0  0  0  0  0  0  0
  -15.1555   21.7292  -44.6652 C   0  0  0  0  0  0  0  0  0  0  0  0
  -17.6404   21.6003  -41.9321 N   0  0  0  0  0  0  0  0  0  0  0  0
  -17.8982   21.0031  -40.7824 N   0  0  0  0  0  0  0  0  0  0  0  0
  -16.3238   18.7969  -38.4200 C   0  0  0  0  0  0  0  0  0  0  0  0
  -15.2266   18.8311  -38.9969 O   0  0  0  0  0  0  0  0  0  0  0  0
  -16.5191   18.1818  -37.2427 N   0  0  0  0  0  0  0  0  0  0  0  0
  -15.5172   17.4419  -36.5247 C   0  0  0  0  0  0  0  0  0  0  0  0
  -15.2535   17.9575  -35.1738 C   0  0  0  0  0  0  0  0  0  0  0  0
  -14.8934   19.2983  -34.9683 C   0  0  0  0  0  0  0  0  0  0  0  0
  -14.6349   20.1388  -36.0027 F   0  0  0  0  0  0  0  0  0  0  0  0
  -14.6954   19.8208  -33.6973 C   0  0  0  0  0  0  0  0  0  0  0  0
  -14.8386   19.0533  -32.5780 C   0  0  0  0  0  0  0  0  0  0  0  0
  -15.1826   17.7495  -32.7386 C   0  0  0  0  0  0  0  0  0  0  0  0
  -15.3816   17.2264  -34.0101 C   0  0  0  0  0  0  0  0  0  0  0  0
  -15.6769   15.9179  -34.0905 F   0  0  0  0  0  0  0  0  0  0  0  0
  -21.2162   16.3249  -34.0738 C   0  0  0  0  0  0  0  0  0  0  0  0
  -22.1059   15.8789  -33.1288 C   0  0  0  0  0  0  0  0  0  0  0  0
  1  2  1  0
  2  3  1  0
  3  4  1  0
  4  5  2  0
  4  6  1  0
  6  7  1  0
  7  8  2  0
  8  9  1  0
  9 10  2  0
 10 11  1  0
 11 12  1  0
 12 13  1  0
 13 14  2  0
 14 15  1  0
 15 16  1  0
 16 17  1  0
 17 18  1  0
 17 19  1  0
 14 20  1  0
 20 21  2  0
 20 22  1  0
 22 23  1  0
 23 24  2  0
 24 25  1  0
 25 26  2  0
 26 27  1  0
 27 28  1  0
 26 29  1  0
 29 30  2  0
 22 31  1  0
 31 32  2  0
 31 33  1  0
 33 34  1  0
 34 35  1  0
 35 36  2  0
 36 37  1  0
 36 38  1  0
 38 39  2  0
 39 40  1  0
 40 41  2  0
 41 42  1  0
 10 43  1  0
 43 44  2  0
 44  7  1  0
 15 11  2  0
 30 23  1  0
 41 35  1  0
 33 13  1  0
M  END
$$$$
