
     RDKit          3D

 42 45  0  0  0  0  0  0  0  0999 V2000
  -14.3232   19.3885  -44.5649 C   0  0  0  0  0  0  0  0  0  0  0  0
  -14.8988   19.6098  -43.3268 O   0  0  0  0  0  0  0  0  0  0  0  0
  -14.5987   19.1195  -42.0922 C   0  0  0  0  0  0  0  0  0  0  0  0
  -13.3556   18.5772  -41.7761 C   0  0  0  0  0  0  0  0  0  0  0  0
  -13.0644   18.0658  -40.4786 C   0  0  0  0  0  0  0  0  0  0  0  0
  -11.8060   17.4120  -40.1698 C   0  0  0  0  0  0  0  0  0  0  0  0
  -11.5498   16.3940  -39.6166 O   0  0  0  0  0  0  0  0  0  0  0  0
  -10.6263   18.1591  -40.6312 O   0  0  0  0  0  0  0  0  0  0  0  0
  -14.0944   18.1922  -39.6609 C   0  0  0  0  0  0  0  0  0  0  0  0
  -15.3648   18.6870  -39.7678 C   0  0  0  0  0  0  0  0  0  0  0  0
  -15.6111   19.1783  -41.1277 C   0  0  0  0  0  0  0  0  0  0  0  0
  -16.9002   19.4246  -41.5532 N   0  0  0  0  0  0  0  0  0  0  0  0
  -18.1460   18.9817  -41.1572 C   0  0  0  0  0  0  0  0  0  0  0  0
  -18.7064   18.0395  -41.7690 O   0  0  0  0  0  0  0  0  0  0  0  0
  -18.8451   19.6193  -39.9883 C   0  0  2  0  0  0  0  0  0  0  0  0
  -19.1670   18.6977  -38.9368 N   0  0  0  0  0  0  0  0  0  0  0  0
  -20.5710   18.9060  -38.5672 C   0  0  1  0  0  0  0  0  0  0  0  0
  -20.9806   18.6378  -37.1904 C   0  0  0  0  0  0  0  0  0  0  0  0
  -21.1575   17.1416  -36.9901 C   0  0  0  0  0  0  0  0  0  0  0  0
  -22.1859   16.5851  -37.9494 C   0  0  0  0  0  0  0  0  0  0  0  0
  -21.8083   16.9505  -35.5904 C   0  0  0  0  0  0  0  0  0  0  0  0
  -19.8765   16.3890  -36.9354 C   0  0  0  0  0  0  0  0  0  0  0  0
  -20.8375   20.2734  -39.1340 C   0  0  2  0  0  0  0  0  0  0  0  0
  -19.8309   21.0150  -38.1083 C   0  0  0  0  0  0  0  0  0  0  0  0
  -19.0934   21.5603  -37.3451 N   0  0  0  0  0  0  0  0  0  0  0  0
  -22.0996   20.9216  -38.9009 C   0  0  0  0  0  0  0  0  0  0  0  0
  -23.3102   20.3480  -39.1977 C   0  0  0  0  0  0  0  0  0  0  0  0
  -24.5366   20.8297  -38.7549 C   0  0  0  0  0  0  0  0  0  0  0  0
  -24.5603   21.9861  -37.9568 C   0  0  0  0  0  0  0  0  0  0  0  0
  -26.0614   22.6217  -37.3337 Cl  0  0  0  0  0  0  0  0  0  0  0  0
  -23.3665   22.6001  -37.6459 C   0  0  0  0  0  0  0  0  0  0  0  0
  -22.1949   22.0627  -38.1179 C   0  0  0  0  0  0  0  0  0  0  0  0
  -21.0674   22.7822  -37.7542 F   0  0  0  0  0  0  0  0  0  0  0  0
  -20.1960   20.1840  -40.4304 C   0  0  1  0  0  0  0  0  0  0  0  0
  -20.1690   21.2795  -41.3188 C   0  0  0  0  0  0  0  0  0  0  0  0
  -19.1910   22.3370  -41.2107 C   0  0  0  0  0  0  0  0  0  0  0  0
  -19.1846   23.4126  -42.0081 C   0  0  0  0  0  0  0  0  0  0  0  0
  -20.1363   23.5767  -43.0239 C   0  0  0  0  0  0  0  0  0  0  0  0
  -21.0678   22.6019  -43.1765 C   0  0  0  0  0  0  0  0  0  0  0  0
  -22.2483   22.8124  -44.4623 Cl  0  0  0  0  0  0  0  0  0  0  0  0
  -21.0528   21.5173  -42.3430 C   0  0  0  0  0  0  0  0  0  0  0  0
  -22.0279   20.5784  -42.6230 F   0  0  0  0  0  0  0  0  0  0  0  0
  1  2  1  0
  2  3  1  0
  3  4  2  0
  4  5  1  0
  5  6  1  0
  6  7  2  0
  6  8  1  0
  5  9  2  0
  9 10  1  0
 10 11  2  0
 11 12  1  0
 12 13  1  0
 13 14  2  0
 15 13  1  6
 15 16  1  0
 16 17  1  0
 17 18  1  1
 18 19  1  0
 19 20  1  0
 19 21  1  0
 19 22  1  0
 17 23  1  0
 23 24  1  1
 24 25  3  0
 23 26  1  0
 26 27  2  0
 27 28  1  0
 28 29  2  0
 29 30  1  0
 29 31  1  0
 31 32  2  0
 32 33  1  0
 23 34  1  0
 34 35  1  1
 35 36  2  0
 36 37  1  0
 37 38  2  0
 38 39  1  0
 39 40  1  0
 39 41  2  0
 41 42  1  0
 11  3  1  0
 34 15  1  0
 41 35  1  0
 32 26  1  0
M  END
$$$$
