
     RDKit          3D

 22 22  0  0  0  0  0  0  0  0999 V2000
   -2.0475   16.0915  -21.0432 C   0  0  0  0  0  0  0  0  0  0  0  0
   -0.6639   15.5625  -21.1712 C   0  0  0  0  0  0  0  0  0  0  0  0
    0.2876   15.8887  -20.0925 C   0  0  0  0  0  0  0  0  0  0  0  0
    0.6306   17.2982  -19.8156 C   0  0  0  0  0  0  0  0  0  0  0  0
    1.2502   18.0961  -20.7517 N   0  0  0  0  0  0  0  0  0  0  0  0
    0.5428   18.4973  -21.8901 C   0  0  0  0  0  0  0  0  0  0  0  0
    1.2459   18.1993  -23.2015 C   0  0  0  0  0  0  0  0  0  0  0  0
    2.7534   18.2833  -23.0235 C   0  0  0  0  0  0  0  0  0  0  0  0
    2.9645   19.2270  -21.8593 C   0  0  0  0  0  0  0  0  0  0  0  0
    2.5129   18.6581  -20.5367 C   0  0  1  0  0  0  0  0  0  0  0  0
    2.5860   19.7122  -19.5050 C   0  0  0  0  0  0  0  0  0  0  0  0
    1.5462   20.0808  -18.8583 O   0  0  0  0  0  0  0  0  0  0  0  0
    3.8324   20.3344  -19.2184 N   0  0  0  0  0  0  0  0  0  0  0  0
    3.9802   21.3465  -18.2475 C   0  0  0  0  0  0  0  0  0  0  0  0
    3.8164   22.6551  -18.6467 C   0  0  0  0  0  0  0  0  0  0  0  0
    3.4934   23.0224  -20.0588 C   0  0  0  0  0  0  0  0  0  0  0  0
    3.9626   23.6273  -17.6814 C   0  0  0  0  0  0  0  0  0  0  0  0
    4.2633   23.3131  -16.3540 C   0  0  0  0  0  0  0  0  0  0  0  0
    4.4192   21.9910  -15.9950 C   0  0  0  0  0  0  0  0  0  0  0  0
    4.2795   20.9971  -16.9363 C   0  0  0  0  0  0  0  0  0  0  0  0
    4.4467   19.5574  -16.5457 C   0  0  0  0  0  0  0  0  0  0  0  0
    2.5468   19.5547  -19.5089 Cl  0  0  0  0  0  0  0  0  0  0  0  0
  1  2  1  0
  2  3  1  0
  3  4  1  0
  4  5  1  0
  5  6  1  0
  6  7  1  0
  7  8  1  0
  8  9  1  0
  9 10  1  0
 10 11  1  1
 11 12  2  0
 11 13  1  0
 13 14  1  0
 14 15  2  0
 15 16  1  0
 15 17  1  0
 17 18  2  0
 18 19  1  0
 19 20  2  0
 20 21  1  0
 10  5  1  0
 20 14  1  0
M  END
$$$$
