
     RDKit          3D

 22 24  0  0  0  0  0  0  0  0999 V2000
  -25.6534   19.6096  -25.0264 O   0  0  0  0  0  0  0  0  0  0  0  0
  -25.9116   18.3751  -24.8085 C   0  0  0  0  0  0  0  0  0  0  0  0
  -24.8634   17.5455  -24.1669 C   0  0  0  0  0  0  0  0  0  0  0  0
  -24.6839   16.0171  -25.1621 S   0  0  0  0  0  0  0  0  0  0  0  0
  -26.3507   15.5911  -25.6537 C   0  0  0  0  0  0  0  0  0  0  0  0
  -26.5290   14.2949  -26.0683 C   0  0  0  0  0  0  0  0  0  0  0  0
  -27.7938   13.8849  -26.4540 C   0  0  0  0  0  0  0  0  0  0  0  0
  -28.8347   14.8034  -26.4064 C   0  0  0  0  0  0  0  0  0  0  0  0
  -28.6646   16.0940  -25.9956 C   0  0  0  0  0  0  0  0  0  0  0  0
  -27.4100   16.5161  -25.6083 C   0  0  0  0  0  0  0  0  0  0  0  0
  -27.2066   17.8622  -25.1994 N   0  0  0  0  0  0  0  0  0  0  0  0
  -28.2705   18.8418  -25.1367 C   0  0  0  0  0  0  0  0  0  0  0  0
  -28.6822   19.3262  -26.4902 C   0  0  0  0  0  0  0  0  0  0  0  0
  -27.8007   20.0859  -27.2613 C   0  0  0  0  0  0  0  0  0  0  0  0
  -28.1271   20.5524  -28.5129 C   0  0  0  0  0  0  0  0  0  0  0  0
  -29.3554   20.2870  -29.0691 C   0  0  0  0  0  0  0  0  0  0  0  0
  -30.2401   19.5396  -28.3263 C   0  0  0  0  0  0  0  0  0  0  0  0
  -31.5673   19.2438  -28.9088 C   0  0  0  0  0  0  0  0  0  0  0  0
  -31.6710   17.9048  -29.2711 F   0  0  0  0  0  0  0  0  0  0  0  0
  -31.8244   19.9918  -30.0473 F   0  0  0  0  0  0  0  0  0  0  0  0
  -32.5283   19.5786  -27.9774 F   0  0  0  0  0  0  0  0  0  0  0  0
  -29.9026   19.0743  -27.0673 C   0  0  0  0  0  0  0  0  0  0  0  0
  1  2  2  0
  2  3  1  0
  3  4  1  0
  4  5  1  0
  5  6  2  0
  6  7  1  0
  7  8  2  0
  8  9  1  0
  9 10  2  0
 10 11  1  0
 11 12  1  0
 12 13  1  0
 13 14  2  0
 14 15  1  0
 15 16  2  0
 16 17  1  0
 17 18  1  0
 18 19  1  0
 18 20  1  0
 18 21  1  0
 17 22  2  0
 11  2  1  0
 22 13  1  0
 10  5  1  0
M  END
$$$$
