
     RDKit          3D

 12 13  0  0  0  0  0  0  0  0999 V2000
  -19.0236   32.0942  -22.4065 O   0  0  0  0  0  0  0  0  0  0  0  0
  -19.7019   33.1434  -22.5511 C   0  0  0  0  0  0  0  0  0  0  0  0
  -21.0660   32.9793  -22.8105 O   0  0  0  0  0  0  0  0  0  0  0  0
  -19.1196   34.4753  -22.4579 C   0  0  0  0  0  0  0  0  0  0  0  0
  -19.8045   35.6627  -22.5077 C   0  0  0  0  0  0  0  0  0  0  0  0
  -18.9117   36.7185  -22.3862 C   0  0  0  0  0  0  0  0  0  0  0  0
  -19.0456   38.0899  -22.3712 C   0  0  0  0  0  0  0  0  0  0  0  0
  -17.9609   38.9107  -22.2336 C   0  0  0  0  0  0  0  0  0  0  0  0
  -16.7148   38.3209  -22.1088 C   0  0  0  0  0  0  0  0  0  0  0  0
  -16.5818   36.9568  -22.1237 C   0  0  0  0  0  0  0  0  0  0  0  0
  -17.6601   36.1215  -22.2609 C   0  0  0  0  0  0  0  0  0  0  0  0
  -17.8253   34.7709  -22.3085 N   0  0  0  0  0  0  0  0  0  0  0  0
  1  2  2  0
  2  3  1  0
  2  4  1  0
  4  5  2  0
  5  6  1  0
  6  7  2  0
  7  8  1  0
  8  9  2  0
  9 10  1  0
 10 11  2  0
 11 12  1  0
 12  4  1  0
 11  6  1  0
M  END
$$$$
