
     RDKit          3D

 32 35  0  0  0  0  0  0  0  0999 V2000
  -26.7371   21.6021  -28.5510 N   0  0  0  0  0  0  0  0  0  0  0  0
  -26.4353   20.2362  -28.8651 C   0  0  0  0  0  0  0  0  0  0  0  0
  -25.5229   19.9594  -29.8589 C   0  0  0  0  0  0  0  0  0  0  0  0
  -24.7381   21.2873  -30.7284 S   0  0  0  0  0  6  0  0  0  0  0  0
  -23.3294   21.4490  -30.2206 O   0  0  0  0  0  0  0  0  0  0  0  0
  -24.6624   20.9127  -32.1627 O   0  0  0  0  0  0  0  0  0  0  0  0
  -25.5440   22.7263  -30.4745 O   0  0  0  0  0  0  0  0  0  0  0  0
  -25.1880   18.6954  -30.2123 C   0  0  0  0  0  0  0  0  0  0  0  0
  -25.7976   17.6287  -29.5369 C   0  0  0  0  0  0  0  0  0  0  0  0
  -25.4005   16.3322  -29.9571 N   0  0  0  0  0  0  0  0  0  0  0  0
  -24.7415   16.1029  -31.1920 C   0  0  0  0  0  0  0  0  0  0  0  0
  -24.9672   16.9270  -32.3008 C   0  0  0  0  0  0  0  0  0  0  0  0
  -24.3250   16.7100  -33.5026 C   0  0  0  0  0  0  0  0  0  0  0  0
  -23.4366   15.6540  -33.6174 C   0  0  0  0  0  0  0  0  0  0  0  0
  -23.2018   14.8314  -32.5351 C   0  0  0  0  0  0  0  0  0  0  0  0
  -22.0686   13.5068  -32.7277 S   0  0  0  0  0  6  0  0  0  0  0  0
  -22.6525   12.0525  -32.0348 N   0  0  0  0  0  0  0  0  0  0  0  0
  -20.7417   13.8264  -32.1070 O   0  0  0  0  0  0  0  0  0  0  0  0
  -21.8622   13.2719  -34.2045 O   0  0  0  0  0  0  0  0  0  0  0  0
  -23.8491   15.0564  -31.3366 C   0  0  0  0  0  0  0  0  0  0  0  0
  -26.7137   17.8627  -28.5349 C   0  0  0  0  0  0  0  0  0  0  0  0
  -27.0387   19.1810  -28.1937 C   0  0  0  0  0  0  0  0  0  0  0  0
  -27.9877   19.4695  -27.1271 C   0  0  0  0  0  0  0  0  0  0  0  0
  -28.2786   20.6641  -26.8253 O   0  0  0  0  0  0  0  0  0  0  0  0
  -28.6007   18.3580  -26.4082 C   0  0  0  0  0  0  0  0  0  0  0  0
  -29.5099   18.6172  -25.3861 C   0  0  0  0  0  0  0  0  0  0  0  0
  -30.0705   17.5462  -24.7268 C   0  0  0  0  0  0  0  0  0  0  0  0
  -29.7487   16.2479  -25.0599 C   0  0  0  0  0  0  0  0  0  0  0  0
  -28.8489   16.0073  -26.0719 C   0  0  0  0  0  0  0  0  0  0  0  0
  -28.2812   17.0597  -26.7390 C   0  0  0  0  0  0  0  0  0  0  0  0
  -27.3217   16.7531  -27.8179 C   0  0  0  0  0  0  0  0  0  0  0  0
  -27.0713   15.5507  -28.0650 O   0  0  0  0  0  0  0  0  0  0  0  0
  1  2  1  0
  2  3  2  0
  3  4  1  0
  4  5  2  0
  4  6  2  0
  4  7  1  0
  3  8  1  0
  8  9  2  0
  9 10  1  0
 10 11  1  0
 11 12  2  0
 12 13  1  0
 13 14  2  0
 14 15  1  0
 15 16  1  0
 16 17  1  0
 16 18  2  0
 16 19  2  0
 15 20  2  0
  9 21  1  0
 21 22  2  0
 22 23  1  0
 23 24  2  0
 23 25  1  0
 25 26  2  0
 26 27  1  0
 27 28  2  0
 28 29  1  0
 29 30  2  0
 30 31  1  0
 31 32  2  0
 22  2  1  0
 30 25  1  0
 20 11  1  0
 31 21  1  0
M  END
$$$$
