
     RDKit          3D

 35 38  0  0  0  0  0  0  0  0999 V2000
  -17.3872   16.3059  -34.0654 C   0  0  0  0  0  0  0  0  0  0  0  0
  -18.7033   15.8330  -33.5680 C   0  0  0  0  0  0  0  0  0  0  0  0
  -19.8194   16.1175  -34.3131 C   0  0  0  0  0  0  0  0  0  0  0  0
  -19.7307   16.8763  -35.5546 C   0  0  0  0  0  0  0  0  0  0  0  0
  -19.7150   16.2848  -36.6895 O   0  0  0  0  0  0  0  0  0  0  0  0
  -19.6556   18.2941  -35.6312 N   0  0  0  0  0  0  0  0  0  0  0  0
  -20.0075   19.0174  -36.7881 C   0  0  0  0  0  0  0  0  0  0  0  0
  -19.4332   18.7207  -37.9903 C   0  0  0  0  0  0  0  0  0  0  0  0
  -19.7869   19.4649  -39.1276 C   0  0  0  0  0  0  0  0  0  0  0  0
  -20.7118   20.4966  -39.0387 C   0  0  0  0  0  0  0  0  0  0  0  0
  -21.0431   21.2665  -40.1760 N   0  0  0  0  0  0  0  0  0  0  0  0
  -21.9541   22.3796  -40.1645 C   0  0  0  0  0  0  0  0  0  0  0  0
  -21.1775   23.5594  -40.7131 C   0  0  2  0  0  0  0  0  0  0  0  0
  -22.0097   24.8349  -40.6289 C   0  0  0  0  0  0  0  0  0  0  0  0
  -20.6646   23.3386  -41.9446 O   0  0  0  0  0  0  0  0  0  0  0  0
  -20.6290   22.0822  -42.4533 C   0  0  2  0  0  0  0  0  0  0  0  0
  -21.8575   21.7867  -43.3259 C   0  0  0  0  0  0  0  0  0  0  0  0
  -20.4521   20.9630  -41.4571 C   0  0  0  0  0  0  0  0  0  0  0  0
  -21.2488   20.7477  -37.8329 N   0  0  0  0  0  0  0  0  0  0  0  0
  -20.9183   20.0340  -36.7089 C   0  0  0  0  0  0  0  0  0  0  0  0
  -21.0479   15.6531  -33.8416 C   0  0  0  0  0  0  0  0  0  0  0  0
  -21.1923   14.9356  -32.6849 C   0  0  0  0  0  0  0  0  0  0  0  0
  -20.0529   14.6714  -31.9672 C   0  0  0  0  0  0  0  0  0  0  0  0
  -18.8098   15.1114  -32.3941 C   0  0  0  0  0  0  0  0  0  0  0  0
  -17.6097   14.8296  -31.6125 C   0  0  0  0  0  0  0  0  0  0  0  0
  -16.9447   15.7514  -30.8382 C   0  0  0  0  0  0  0  0  0  0  0  0
  -15.7951   15.4199  -30.1229 C   0  0  0  0  0  0  0  0  0  0  0  0
  -15.2731   14.1449  -30.1613 C   0  0  0  0  0  0  0  0  0  0  0  0
  -14.1149   13.8160  -29.4383 O   0  0  0  0  0  0  0  0  0  0  0  0
  -12.8390   14.1311  -30.0140 C   0  0  0  0  0  0  0  0  0  0  0  0
  -11.8945   13.9567  -29.0193 F   0  0  0  0  0  0  0  0  0  0  0  0
  -12.5130   13.2318  -31.0189 F   0  0  0  0  0  0  0  0  0  0  0  0
  -12.7847   15.4254  -30.4474 F   0  0  0  0  0  0  0  0  0  0  0  0
  -15.9265   13.2112  -30.9312 C   0  0  0  0  0  0  0  0  0  0  0  0
  -17.0613   13.5412  -31.6365 C   0  0  0  0  0  0  0  0  0  0  0  0
  1  2  1  0
  2  3  2  0
  3  4  1  0
  4  5  2  0
  4  6  1  0
  6  7  1  0
  7  8  2  0
  8  9  1  0
  9 10  2  0
 10 11  1  0
 11 12  1  0
 12 13  1  0
 13 14  1  6
 13 15  1  0
 15 16  1  0
 16 17  1  1
 16 18  1  0
 10 19  1  0
 19 20  2  0
  3 21  1  0
 21 22  2  0
 22 23  1  0
 23 24  2  0
 24 25  1  0
 25 26  2  0
 26 27  1  0
 27 28  2  0
 28 29  1  0
 29 30  1  0
 30 31  1  0
 30 32  1  0
 30 33  1  0
 28 34  1  0
 34 35  2  0
 24  2  1  0
 35 25  1  0
 20  7  1  0
 18 11  1  0
M  END
$$$$
