
     RDKit          3D

  8  8  0  0  0  0  0  0  0  0999 V2000
  -17.7736   18.7513  -32.3218 O   0  0  0  0  0  1  0  0  0  0  0  0
  -17.5456   17.5413  -31.7604 N   0  0  0  0  0  4  0  0  0  0  0  0
  -18.2614   16.4779  -32.1802 C   0  0  0  0  0  0  0  0  0  0  0  0
  -18.0844   15.2100  -31.6537 C   0  0  0  0  0  0  0  0  0  0  0  0
  -17.1151   15.1025  -30.6578 C   0  0  0  0  0  0  0  0  0  0  0  0
  -16.3991   16.2063  -30.2490 C   0  0  0  0  0  0  0  0  0  0  0  0
  -16.6056   17.4546  -30.7995 C   0  0  0  0  0  0  0  0  0  0  0  0
  -15.6582   18.8679  -30.2455 S   0  0  0  0  0  0  0  0  0  0  0  0
  1  2  1  0
  2  3  2  0
  3  4  1  0
  4  5  2  0
  5  6  1  0
  6  7  2  0
  7  8  1  0
  7  2  1  0
M  CHG  2   1  -1   2   1
M  END
$$$$
