
     RDKit          3D

 28 31  0  0  0  0  0  0  0  0999 V2000
  -14.2690   45.3091  -19.3671 C   0  0  0  0  0  0  0  0  0  0  0  0
  -15.4286   44.4319  -19.5669 N   0  0  0  0  0  0  0  0  0  0  0  0
  -15.2627   43.0963  -20.0332 C   0  0  0  0  0  0  0  0  0  0  0  0
  -14.1153   42.6782  -20.2444 O   0  0  0  0  0  0  0  0  0  0  0  0
  -16.4108   42.2340  -20.2595 C   0  0  0  0  0  0  0  0  0  0  0  0
  -16.2320   40.9874  -20.8289 C   0  0  0  0  0  0  0  0  0  0  0  0
  -17.2967   40.1447  -21.0576 C   0  0  0  0  0  0  0  0  0  0  0  0
  -17.1651   38.8916  -21.6237 O   0  0  0  0  0  0  0  0  0  0  0  0
  -18.1668   38.4171  -22.4317 C   0  0  0  0  0  0  0  0  0  0  0  0
  -19.0729   37.4328  -22.0955 C   0  0  0  0  0  0  0  0  0  0  0  0
  -20.0646   36.9663  -22.9019 C   0  0  0  0  0  0  0  0  0  0  0  0
  -20.2213   37.4951  -24.1875 C   0  0  0  0  0  0  0  0  0  0  0  0
  -21.1002   37.1952  -25.1204 N   0  0  0  0  0  0  0  0  0  0  0  0
  -21.2412   37.6192  -26.1776 C   0  0  0  0  0  0  0  0  0  0  0  0
  -22.0578   37.5009  -27.3530 N   0  0  0  0  0  0  0  0  0  0  0  0
  -21.5870   36.5954  -28.3701 C   0  0  2  0  0  0  0  0  0  0  0  0
  -21.5575   37.3458  -29.6906 C   0  0  0  0  0  0  0  0  0  0  0  0
  -22.8691   38.0717  -29.8285 C   0  0  0  0  0  0  0  0  0  0  0  0
  -23.9967   37.1137  -29.6122 C   0  0  0  0  0  0  0  0  0  0  0  0
  -23.5765   35.6744  -29.5778 C   0  0  0  0  0  0  0  0  0  0  0  0
  -22.4937   35.4117  -28.5504 C   0  0  1  0  0  0  0  0  0  0  0  0
  -21.7115   34.3551  -29.0665 O   0  0  0  0  0  0  0  0  0  0  0  0
  -19.8282   38.8937  -26.2014 S   0  0  0  0  0  0  0  0  0  0  0  0
  -19.3384   38.4692  -24.5440 C   0  0  0  0  0  0  0  0  0  0  0  0
  -18.3120   38.9517  -23.7089 C   0  0  0  0  0  0  0  0  0  0  0  0
  -18.5559   40.5710  -20.7050 C   0  0  0  0  0  0  0  0  0  0  0  0
  -18.7475   41.8311  -20.1279 C   0  0  0  0  0  0  0  0  0  0  0  0
  -17.6577   42.5999  -19.9349 N   0  0  0  0  0  0  0  0  0  0  0  0
  1  2  1  0
  2  3  1  0
  3  4  2  0
  3  5  1  0
  5  6  2  0
  6  7  1  0
  7  8  1  0
  8  9  1  0
  9 10  2  0
 10 11  1  0
 11 12  2  0
 12 13  1  0
 13 14  2  0
 14 15  1  0
 16 15  1  1
 16 17  1  0
 17 18  1  0
 18 19  1  0
 19 20  1  0
 20 21  1  0
 21 22  1  6
 14 23  1  0
 23 24  1  0
 24 25  2  0
  7 26  2  0
 26 27  1  0
 27 28  2  0
 28  5  1  0
 25  9  1  0
 24 12  1  0
 21 16  1  0
M  END
$$$$
