
     RDKit          3D

 38 40  0  0  0  0  0  0  0  0999 V2000
  -15.8787   17.3289  -36.8830 C   0  0  0  0  0  0  0  0  0  0  0  0
  -15.7166   17.4742  -35.3879 C   0  0  0  0  0  0  0  0  0  0  0  0
  -15.3336   18.8956  -35.0726 C   0  0  0  0  0  0  0  0  0  0  0  0
  -14.5773   16.5524  -34.9730 C   0  0  0  0  0  0  0  0  0  0  0  0
  -16.9622   17.0309  -34.7233 C   0  0  0  0  0  0  0  0  0  0  0  0
  -17.0490   15.9583  -33.8798 C   0  0  0  0  0  0  0  0  0  0  0  0
  -18.2490   15.6436  -33.3065 C   0  0  0  0  0  0  0  0  0  0  0  0
  -18.3828   14.1532  -32.1338 Br  0  0  0  0  0  0  0  0  0  0  0  0
  -19.4091   16.3880  -33.5545 C   0  0  0  0  0  0  0  0  0  0  0  0
  -19.3288   17.4677  -34.4026 C   0  0  0  0  0  0  0  0  0  0  0  0
  -20.5158   18.3186  -34.7122 C   0  0  2  0  0  0  0  0  0  0  0  0
  -20.6864   18.5341  -36.1842 C   0  0  0  0  0  0  0  0  0  0  0  0
  -20.9119   17.2315  -36.8600 C   0  0  0  0  0  0  0  0  0  0  0  0
  -21.4523   16.2532  -36.2847 O   0  0  0  0  0  0  0  0  0  0  0  0
  -20.5262   17.0421  -38.1783 O   0  0  0  0  0  0  0  0  0  0  0  0
  -20.3724   19.5597  -33.9688 N   0  0  0  0  0  0  0  0  0  0  0  0
  -20.6740   19.6393  -32.5965 C   0  0  0  0  0  0  0  0  0  0  0  0
  -21.1810   18.5993  -32.0730 O   0  0  0  0  0  0  0  0  0  0  0  0
  -20.4160   20.8526  -31.8000 C   0  0  0  0  0  0  0  0  0  0  0  0
  -21.1405   20.7740  -30.5277 N   0  0  0  0  0  0  0  0  0  0  0  0
  -22.3486   21.5018  -30.3853 C   0  0  0  0  0  0  0  0  0  0  0  0
  -22.3173   22.7675  -30.2745 O   0  0  0  0  0  0  0  0  0  0  0  0
  -23.6488   20.8630  -30.3594 C   0  0  0  0  0  0  0  0  0  0  0  0
  -24.7419   21.4967  -30.9598 C   0  0  0  0  0  0  0  0  0  0  0  0
  -25.9795   20.9097  -30.9482 C   0  0  0  0  0  0  0  0  0  0  0  0
  -27.0598   21.5656  -31.5574 O   0  0  0  0  0  0  0  0  0  0  0  0
  -26.1309   19.6868  -30.3371 C   0  0  0  0  0  0  0  0  0  0  0  0
  -25.0924   19.0194  -29.7327 C   0  0  0  0  0  0  0  0  0  0  0  0
  -25.2489   17.7463  -29.1182 N   0  0  0  0  0  0  0  0  0  0  0  0
  -25.0165   17.5025  -27.7296 C   0  0  0  0  0  0  0  0  0  0  0  0
  -24.3305   18.3892  -27.1002 N   0  0  0  0  0  0  0  0  0  0  0  0
  -24.0381   18.2454  -25.7046 C   0  0  0  0  0  0  0  0  0  0  0  0
  -24.0770   16.8376  -25.1974 C   0  0  0  0  0  0  0  0  0  0  0  0
  -22.8807   16.2072  -25.5757 O   0  0  0  0  0  0  0  0  0  0  0  0
  -25.2436   16.0318  -25.6909 C   0  0  0  0  0  0  0  0  0  0  0  0
  -25.5184   16.3512  -27.0735 N   0  0  0  0  0  0  0  0  0  0  0  0
  -23.8581   19.6491  -29.7670 C   0  0  0  0  0  0  0  0  0  0  0  0
  -18.1086   17.7821  -34.9809 C   0  0  0  0  0  0  0  0  0  0  0  0
  1  2  1  0
  2  3  1  0
  2  4  1  0
  2  5  1  0
  5  6  2  0
  6  7  1  0
  7  8  1  0
  7  9  2  0
  9 10  1  0
 10 11  1  0
 11 12  1  6
 12 13  1  0
 13 14  2  0
 13 15  1  0
 11 16  1  0
 16 17  1  0
 17 18  2  0
 17 19  1  0
 19 20  1  0
 20 21  1  0
 21 22  2  0
 21 23  1  0
 23 24  2  0
 24 25  1  0
 25 26  1  0
 25 27  2  0
 27 28  1  0
 28 29  1  0
 29 30  1  0
 30 31  2  0
 31 32  1  0
 32 33  1  0
 33 34  1  0
 33 35  1  0
 35 36  1  0
 28 37  2  0
 10 38  2  0
 38  5  1  0
 37 23  1  0
 36 30  1  0
M  END
$$$$
