
     RDKit          3D

 19 20  0  0  0  0  0  0  0  0999 V2000
  -17.7088   14.1926  -30.6540 O   0  0  0  0  0  0  0  0  0  0  0  0
  -17.2471   15.3189  -30.8529 C   0  0  0  0  0  0  0  0  0  0  0  0
  -17.9671   16.2157  -31.6555 N   0  0  0  0  0  0  0  0  0  0  0  0
  -19.0944   15.9112  -32.4479 C   0  0  0  0  0  0  0  0  0  0  0  0
  -19.7181   14.7022  -32.5704 C   0  0  0  0  0  0  0  0  0  0  0  0
  -20.8406   14.5092  -33.3930 C   0  0  0  0  0  0  0  0  0  0  0  0
  -21.3744   15.5413  -34.1252 C   0  0  0  0  0  0  0  0  0  0  0  0
  -22.7760   15.2913  -35.1495 Cl  0  0  0  0  0  0  0  0  0  0  0  0
  -20.7605   16.7663  -34.0153 C   0  0  0  0  0  0  0  0  0  0  0  0
  -19.6627   16.9461  -33.2082 C   0  0  0  0  0  0  0  0  0  0  0  0
  -15.9919   15.6623  -30.2534 N   0  0  0  0  0  0  0  0  0  0  0  0
  -15.2533   14.8549  -29.3539 C   0  0  0  0  0  0  0  0  0  0  0  0
  -14.9672   13.5330  -29.4983 C   0  0  0  0  0  0  0  0  0  0  0  0
  -14.2200   12.8899  -28.5034 C   0  0  0  0  0  0  0  0  0  0  0  0
  -13.7686   13.5486  -27.3910 C   0  0  0  0  0  0  0  0  0  0  0  0
  -12.8359   12.7584  -26.1430 Cl  0  0  0  0  0  0  0  0  0  0  0  0
  -14.0575   14.8960  -27.2392 C   0  0  0  0  0  0  0  0  0  0  0  0
  -13.4886   15.7681  -25.8168 Cl  0  0  0  0  0  0  0  0  0  0  0  0
  -14.7868   15.5184  -28.2127 C   0  0  0  0  0  0  0  0  0  0  0  0
  1  2  2  0
  2  3  1  0
  3  4  1  0
  4  5  2  0
  5  6  1  0
  6  7  2  0
  7  8  1  0
  7  9  1  0
  9 10  2  0
  2 11  1  0
 11 12  1  0
 12 13  2  0
 13 14  1  0
 14 15  2  0
 15 16  1  0
 15 17  1  0
 17 18  1  0
 17 19  2  0
 10  4  1  0
 19 12  1  0
M  END
$$$$
