
     RDKit          3D

 24 26  0  0  0  0  0  0  0  0999 V2000
  -18.8946   41.9087  -19.7936 N   0  0  0  0  0  0  0  0  0  0  0  0
  -17.6753   40.6870  -19.7688 S   0  0  0  0  0  6  0  0  0  0  0  0
  -16.3142   41.2803  -19.8428 O   0  0  0  0  0  0  0  0  0  0  0  0
  -17.8778   39.8904  -18.5045 O   0  0  0  0  0  0  0  0  0  0  0  0
  -17.8881   39.5776  -21.1050 C   0  0  0  0  0  0  0  0  0  0  0  0
  -19.0066   39.6053  -21.9123 C   0  0  0  0  0  0  0  0  0  0  0  0
  -19.2058   38.7463  -22.9725 C   0  0  0  0  0  0  0  0  0  0  0  0
  -18.2565   37.7997  -23.2670 C   0  0  0  0  0  0  0  0  0  0  0  0
  -18.4507   36.6823  -24.6096 S   0  0  0  0  0  6  0  0  0  0  0  0
  -18.8964   37.3818  -25.8356 O   0  0  0  0  0  0  0  0  0  0  0  0
  -17.0577   36.1338  -24.8904 O   0  0  0  0  0  0  0  0  0  0  0  0
  -19.5194   35.4245  -24.1473 N   0  0  0  0  0  0  0  0  0  0  0  0
  -19.3834   34.6026  -23.0078 C   0  0  0  0  0  0  0  0  0  0  0  0
  -18.2891   33.7882  -22.7641 C   0  0  0  0  0  0  0  0  0  0  0  0
  -18.1955   32.9891  -21.6390 C   0  0  0  0  0  0  0  0  0  0  0  0
  -19.2133   32.9823  -20.7095 C   0  0  0  0  0  0  0  0  0  0  0  0
  -20.3271   33.7803  -20.9112 C   0  0  0  0  0  0  0  0  0  0  0  0
  -21.4762   33.9604  -20.1463 C   0  0  0  0  0  0  0  0  0  0  0  0
  -21.8768   33.1947  -18.6258 Cl  0  0  0  0  0  0  0  0  0  0  0  0
  -22.2336   34.8751  -20.8467 C   0  0  0  0  0  0  0  0  0  0  0  0
  -21.5481   35.2125  -21.9761 N   0  0  0  0  0  0  0  0  0  0  0  0
  -20.3815   34.5501  -22.0272 C   0  0  0  0  0  0  0  0  0  0  0  0
  -17.1236   37.7531  -22.4687 C   0  0  0  0  0  0  0  0  0  0  0  0
  -16.9465   38.6201  -21.4163 C   0  0  0  0  0  0  0  0  0  0  0  0
  1  2  1  0
  2  3  2  0
  2  4  2  0
  2  5  1  0
  5  6  2  0
  6  7  1  0
  7  8  2  0
  8  9  1  0
  9 10  2  0
  9 11  2  0
  9 12  1  0
 12 13  1  0
 13 14  2  0
 14 15  1  0
 15 16  2  0
 16 17  1  0
 17 18  1  0
 18 19  1  0
 18 20  2  0
 20 21  1  0
 21 22  1  0
  8 23  1  0
 23 24  2  0
 24  5  1  0
 22 13  1  0
 22 17  2  0
M  END
$$$$
