
     RDKit          3D

 20 21  0  0  0  0  0  0  0  0999 V2000
   -3.5370   38.9051  -13.2637 Br  0  0  0  0  0  0  0  0  0  0  0  0
   -9.6586   42.5573  -11.6302 N   0  0  0  0  0  0  0  0  0  0  0  0
   -8.5515   42.2615  -12.5351 C   0  0  0  0  0  0  0  0  0  0  0  0
   -7.7493   41.4250  -12.7543 N   0  0  0  0  0  0  0  0  0  0  0  0
   -6.8123   41.3959  -13.6755 C   0  0  0  0  0  0  0  0  0  0  0  0
   -5.8513   40.2611  -13.8450 C   0  0  0  0  0  0  0  0  0  0  0  0
   -5.8943   39.1574  -13.0273 C   0  0  0  0  0  0  0  0  0  0  0  0
   -5.0307   38.1178  -13.1658 C   0  0  0  0  0  0  0  0  0  0  0  0
   -4.0646   38.1390  -14.1515 C   0  0  0  0  0  0  0  0  0  0  0  0
   -3.1210   36.9975  -14.2987 C   0  0  0  0  0  0  0  0  0  0  0  0
   -1.8980   37.1851  -13.4837 C   0  0  0  0  0  0  0  0  0  0  0  0
   -0.8112   37.8262  -14.0324 C   0  0  0  0  0  0  0  0  0  0  0  0
    0.3315   38.0135  -13.3031 C   0  0  0  0  0  0  0  0  0  0  0  0
    0.3611   37.5385  -11.9965 C   0  0  0  0  0  0  0  0  0  0  0  0
   -0.7493   36.8876  -11.4470 C   0  0  0  0  0  0  0  0  0  0  0  0
   -1.8832   36.7112  -12.1961 C   0  0  0  0  0  0  0  0  0  0  0  0
   -4.0107   39.2384  -14.9771 C   0  0  0  0  0  0  0  0  0  0  0  0
   -4.8998   40.2936  -14.8240 C   0  0  0  0  0  0  0  0  0  0  0  0
   -6.7765   42.4956  -14.4830 C   0  0  0  0  0  0  0  0  0  0  0  0
   -8.1219   43.5167  -13.8476 S   0  0  0  0  0  0  0  0  0  0  0  0
  2  3  1  0
  3  4  2  0
  4  5  1  0
  5  6  1  0
  6  7  2  0
  7  8  1  0
  8  9  2  0
  9 10  1  0
 10 11  1  0
 11 12  2  0
 12 13  1  0
 13 14  2  0
 14 15  1  0
 15 16  2  0
  9 17  1  0
 17 18  2  0
  5 19  2  0
 19 20  1  0
 20  3  1  0
 18  6  1  0
 16 11  1  0
M  END
$$$$
