
     RDKit          3D

  9  9  0  0  0  0  0  0  0  0999 V2000
  -23.3510   13.5801  -23.8623 C   0  0  0  0  0  0  0  0  0  0  0  0
  -22.3929   14.3992  -23.0505 C   0  0  0  0  0  0  0  0  0  0  0  0
  -22.6767   14.6945  -21.7365 C   0  0  0  0  0  0  0  0  0  0  0  0
  -21.7779   15.4491  -21.0144 C   0  0  0  0  0  0  0  0  0  0  0  0
  -22.1182   15.7452  -19.6065 C   0  0  0  0  0  0  0  0  0  0  0  0
  -20.6453   15.8853  -21.5919 N   0  0  0  0  0  0  0  0  0  0  0  0
  -20.3152   15.6281  -22.8707 C   0  0  0  0  0  0  0  0  0  0  0  0
  -19.1074   16.1054  -23.4516 N   0  0  0  0  0  0  0  0  0  0  0  0
  -21.2211   14.8718  -23.5863 C   0  0  0  0  0  0  0  0  0  0  0  0
  1  2  1  0
  2  3  2  0
  3  4  1  0
  4  5  1  0
  4  6  2  0
  6  7  1  0
  7  8  1  0
  7  9  2  0
  9  2  1  0
M  END
$$$$
