
     RDKit          3D

 33 33  0  0  0  0  0  0  0  0999 V2000
  -19.4498   48.0474  -21.4242 N   0  0  0  0  0  0  0  0  0  0  0  0
  -19.0143   46.8839  -20.7600 C   0  0  0  0  0  0  0  0  0  0  0  0
  -18.9151   46.8631  -19.4083 N   0  0  0  0  0  0  0  0  0  0  0  0
  -18.4991   45.7527  -18.7689 C   0  0  0  0  0  0  0  0  0  0  0  0
  -18.1646   44.6234  -19.4179 N   0  0  0  0  0  0  0  0  0  0  0  0
  -18.2415   44.5792  -20.7638 C   0  0  0  0  0  0  0  0  0  0  0  0
  -18.6681   45.7189  -21.4133 C   0  0  0  0  0  0  0  0  0  0  0  0
  -18.6498   45.3966  -22.7314 N   0  0  0  0  0  0  0  0  0  0  0  0
  -18.2334   44.1273  -22.8681 C   0  0  0  0  0  0  0  0  0  0  0  0
  -17.9762   43.6072  -21.6547 N   0  0  0  0  0  0  0  0  0  0  0  0
  -17.5091   42.2829  -21.3174 C   0  0  2  0  0  0  0  0  0  0  0  0
  -17.6065   41.4147  -22.3950 O   0  0  0  0  0  0  0  0  0  0  0  0
  -17.3487   40.1766  -21.8551 C   0  0  2  0  0  0  0  0  0  0  0  0
  -17.9085   39.0739  -22.7409 C   0  0  0  0  0  0  0  0  0  0  0  0
  -17.5886   37.8652  -22.0958 O   0  0  0  0  0  0  0  0  0  0  0  0
  -18.1849   36.5925  -23.0321 P   0  0  0  0  0  5  0  0  0  0  0  0
  -18.1695   37.0186  -24.4656 O   0  0  0  0  0  0  0  0  0  0  0  0
  -19.7577   36.1586  -22.5215 O   0  0  0  0  0  0  0  0  0  0  0  0
  -17.1969   35.2507  -22.7442 O   0  0  0  0  0  0  0  0  0  0  0  0
  -18.0761   33.8792  -22.3653 P   0  0  0  0  0  5  0  0  0  0  0  0
  -19.3341   33.7800  -23.2061 O   0  0  0  0  0  0  0  0  0  0  0  0
  -17.0818   32.5249  -22.6417 O   0  0  0  0  0  1  0  0  0  0  0  0
  -18.5820   33.8690  -20.7425 O   0  0  0  0  0  0  0  0  0  0  0  0
  -19.8807   32.7642  -20.6551 P   0  0  0  0  0  5  0  0  0  0  0  0
  -21.0672   33.2911  -21.4305 O   0  0  0  0  0  0  0  0  0  0  0  0
  -20.3069   32.4737  -19.0321 O   0  0  0  0  0  1  0  0  0  0  0  0
  -19.4352   31.2732  -21.3205 O   0  0  0  0  0  0  0  0  0  0  0  0
  -17.9334   40.1366  -20.4741 C   0  0  1  0  0  0  0  0  0  0  0  0
  -16.9013   39.8693  -19.5736 O   0  0  0  0  0  0  0  0  0  0  0  0
  -18.3278   41.6051  -20.2681 C   0  0  1  0  0  0  0  0  0  0  0  0
  -17.9958   41.9883  -18.9736 O   0  0  0  0  0  0  0  0  0  0  0  0
  -18.3164   40.1265  -21.2488 Na  0  0  0  0  0 15  0  0  0  0  0  0
  -18.3164   40.1265  -21.2488 Na  0  0  0  0  0 15  0  0  0  0  0  0
  1  2  1  0
  2  3  2  0
  3  4  1  0
  4  5  2  0
  5  6  1  0
  6  7  2  0
  7  8  1  0
  8  9  2  0
  9 10  1  0
 11 10  1  6
 11 12  1  0
 12 13  1  0
 13 14  1  6
 14 15  1  0
 15 16  1  0
 16 17  2  0
 16 18  1  0
 16 19  1  0
 19 20  1  0
 20 21  2  0
 20 22  1  0
 20 23  1  0
 23 24  1  0
 24 25  2  0
 24 26  1  0
 24 27  1  0
 13 28  1  0
 28 29  1  1
 28 30  1  0
 30 31  1  1
  7  2  1  0
 30 11  1  0
 10  6  1  0
M  CHG  4  22  -1  26  -1  32   1  33   1
M  END
$$$$
