
     RDKit          3D

 28 29  0  0  0  0  0  0  0  0999 V2000
  -16.0261   17.0454  -34.4146 C   0  0  0  0  0  0  0  0  0  0  0  0
  -17.1673   17.8450  -34.6862 O   0  0  0  0  0  0  0  0  0  0  0  0
  -17.4938   18.2382  -35.9681 C   0  0  0  0  0  0  0  0  0  0  0  0
  -16.6739   19.0054  -36.5210 O   0  0  0  0  0  0  0  0  0  0  0  0
  -18.7320   17.7907  -36.6635 C   0  0  0  0  0  0  0  0  0  0  0  0
  -19.0162   16.5125  -36.7528 C   0  0  0  0  0  0  0  0  0  0  0  0
  -18.0348   15.5419  -36.1245 C   0  0  0  0  0  0  0  0  0  0  0  0
  -20.1793   16.0005  -37.3813 N   0  0  0  0  0  0  0  0  0  0  0  0
  -21.1074   16.9054  -37.9558 C   0  0  0  0  0  0  0  0  0  0  0  0
  -22.3486   16.4116  -38.6255 C   0  0  0  0  0  0  0  0  0  0  0  0
  -20.8573   18.1815  -37.8881 C   0  0  0  0  0  0  0  0  0  0  0  0
  -21.8102   19.1524  -38.4771 C   0  0  0  0  0  0  0  0  0  0  0  0
  -23.0109   19.1318  -38.0746 O   0  0  0  0  0  0  0  0  0  0  0  0
  -21.4387   20.0587  -39.4295 O   0  0  0  0  0  0  0  0  0  0  0  0
  -22.3524   21.0238  -39.9469 C   0  0  0  0  0  0  0  0  0  0  0  0
  -21.5677   21.8759  -40.9274 C   0  0  0  0  0  0  0  0  0  0  0  0
  -22.3139   23.1416  -41.2151 C   0  0  0  0  0  0  0  0  0  0  0  0
  -21.3826   21.0865  -42.1976 C   0  0  0  0  0  0  0  0  0  0  0  0
  -19.6343   18.8002  -37.2642 C   0  0  0  0  0  0  0  0  0  0  0  0
  -20.1106   19.7538  -36.2103 C   0  0  0  0  0  0  0  0  0  0  0  0
  -20.5830   19.1509  -35.0512 C   0  0  0  0  0  0  0  0  0  0  0  0
  -21.0022   19.9020  -33.9888 C   0  0  0  0  0  0  0  0  0  0  0  0
  -20.9358   21.2696  -34.1177 C   0  0  0  0  0  0  0  0  0  0  0  0
  -20.4725   21.8522  -35.2570 C   0  0  0  0  0  0  0  0  0  0  0  0
  -20.0331   21.0997  -36.3720 C   0  0  0  0  0  0  0  0  0  0  0  0
  -19.5872   21.7728  -37.5287 N   0  0  0  0  0  4  0  0  0  0  0  0
  -20.4150   21.7545  -38.5001 O   0  0  0  0  0  0  0  0  0  0  0  0
  -18.4299   22.4282  -37.7565 O   0  0  0  0  0  1  0  0  0  0  0  0
  1  2  1  0
  2  3  1  0
  3  4  2  0
  3  5  1  0
  5  6  2  0
  6  7  1  0
  6  8  1  0
  8  9  1  0
  9 10  1  0
  9 11  2  0
 11 12  1  0
 12 13  2  0
 12 14  1  0
 14 15  1  0
 15 16  1  0
 16 17  1  0
 16 18  1  0
 11 19  1  0
 19 20  1  0
 20 21  2  0
 21 22  1  0
 22 23  2  0
 23 24  1  0
 24 25  2  0
 25 26  1  0
 26 27  2  0
 26 28  1  0
 19  5  1  0
 25 20  1  0
M  CHG  2  26   1  28  -1
M  END
$$$$
