
     RDKit          3D

 17 19  0  0  0  0  0  0  0  0999 V2000
  -17.9580   41.7888  -25.7806 C   0  0  0  0  0  0  0  0  0  0  0  0
  -17.8982   41.3594  -24.3609 C   0  0  0  0  0  0  0  0  0  0  0  0
  -18.0823   40.0304  -24.0507 C   0  0  0  0  0  0  0  0  0  0  0  0
  -18.0311   39.6021  -22.7285 C   0  0  0  0  0  0  0  0  0  0  0  0
  -18.2248   38.1979  -22.3919 C   0  0  0  0  0  0  0  0  0  0  0  0
  -18.2288   37.6326  -21.1793 N   0  0  0  0  0  0  0  0  0  0  0  0
  -18.4391   36.3331  -21.3189 C   0  0  0  0  0  0  0  0  0  0  0  0
  -18.5318   35.3244  -20.4007 N   0  0  0  0  0  0  0  0  0  0  0  0
  -18.7530   34.0565  -20.7696 C   0  0  0  0  0  0  0  0  0  0  0  0
  -18.8861   33.7958  -22.1199 C   0  0  0  0  0  0  0  0  0  0  0  0
  -18.7974   34.7910  -23.0674 C   0  0  0  0  0  0  0  0  0  0  0  0
  -18.5697   36.0909  -22.6742 C   0  0  0  0  0  0  0  0  0  0  0  0
  -18.4314   37.2445  -23.2557 O   0  0  0  0  0  0  0  0  0  0  0  0
  -17.7907   40.5685  -21.7762 C   0  0  0  0  0  0  0  0  0  0  0  0
  -17.6065   41.8953  -22.0812 C   0  0  0  0  0  0  0  0  0  0  0  0
  -17.6583   42.3175  -23.4000 C   0  0  0  0  0  0  0  0  0  0  0  0
  -17.4763   43.6701  -23.7751 N   0  0  0  0  0  0  0  0  0  0  0  0
  1  2  1  0
  2  3  2  0
  3  4  1  0
  4  5  1  0
  5  6  2  0
  6  7  1  0
  7  8  2  0
  8  9  1  0
  9 10  2  0
 10 11  1  0
 11 12  2  0
 12 13  1  0
  4 14  2  0
 14 15  1  0
 15 16  2  0
 16 17  1  0
 16  2  1  0
 13  5  1  0
 12  7  1  0
M  END
$$$$
