
     RDKit          3D

  9  9  0  0  0  0  0  0  0  0999 V2000
  -20.5352   38.0964  -20.5642 O   0  0  0  0  0  0  0  0  0  0  0  0
  -19.4663   38.2633  -21.2150 C   0  0  0  0  0  0  0  0  0  0  0  0
  -18.4831   39.0826  -20.7924 N   0  0  0  0  0  0  0  0  0  0  0  0
  -17.3392   39.2756  -21.4668 C   0  0  0  0  0  0  0  0  0  0  0  0
  -17.1354   38.6088  -22.6623 C   0  0  0  0  0  0  0  0  0  0  0  0
  -15.9881   38.7711  -23.3869 F   0  0  0  0  0  0  0  0  0  0  0  0
  -18.1454   37.7719  -23.0893 C   0  0  0  0  0  0  0  0  0  0  0  0
  -18.0238   37.1266  -24.1824 O   0  0  0  0  0  0  0  0  0  0  0  0
  -19.2719   37.6117  -22.3794 N   0  0  0  0  0  0  0  0  0  0  0  0
  1  2  2  0
  2  3  1  0
  3  4  1  0
  4  5  2  0
  5  6  1  0
  5  7  1  0
  7  8  2  0
  7  9  1  0
  9  2  1  0
M  END
$$$$
