
     RDKit          3D

 28 30  0  0  0  0  0  0  0  0999 V2000
  -14.9677   18.4530  -37.0012 C   0  0  0  0  0  0  0  0  0  0  0  0
  -14.6472   17.3620  -36.0608 N   0  0  0  0  0  0  0  0  0  0  0  0
  -15.3311   17.2529  -34.8325 C   0  0  0  0  0  0  0  0  0  0  0  0
  -16.2569   18.0498  -34.5870 O   0  0  0  0  0  0  0  0  0  0  0  0
  -14.9748   16.2413  -33.8692 C   0  0  0  0  0  0  0  0  0  0  0  0
  -13.7581   15.5953  -33.8225 C   0  0  0  0  0  0  0  0  0  0  0  0
  -13.4239   14.6285  -32.8991 C   0  0  0  0  0  0  0  0  0  0  0  0
  -11.8752   13.8408  -32.8795 Cl  0  0  0  0  0  0  0  0  0  0  0  0
  -14.3755   14.2838  -31.9554 C   0  0  0  0  0  0  0  0  0  0  0  0
  -15.6053   14.9010  -31.9614 C   0  0  0  0  0  0  0  0  0  0  0  0
  -16.6263   14.5366  -30.9551 C   0  0  0  0  0  0  0  0  0  0  0  0
  -15.9018   15.8631  -32.9009 C   0  0  0  0  0  0  0  0  0  0  0  0
  -17.1744   16.5189  -32.9269 N   0  0  0  0  0  0  0  0  0  0  0  0
  -18.3975   15.8269  -32.8795 C   0  0  0  0  0  0  0  0  0  0  0  0
  -18.2933   14.5657  -32.7520 O   0  0  0  0  0  0  0  0  0  0  0  0
  -19.7262   16.3998  -32.9599 C   0  0  0  0  0  0  0  0  0  0  0  0
  -19.9801   17.7614  -32.8929 C   0  0  0  0  0  0  0  0  0  0  0  0
  -21.3337   17.9831  -32.9987 C   0  0  0  0  0  0  0  0  0  0  0  0
  -22.1400   19.7072  -32.9570 Br  0  0  0  0  0  0  0  0  0  0  0  0
  -21.8775   16.7694  -33.1269 N   0  0  0  0  0  0  0  0  0  0  0  0
  -20.9193   15.8237  -33.1039 N   0  0  0  0  0  0  0  0  0  0  0  0
  -21.1989   14.4379  -33.2199 C   0  0  0  0  0  0  0  0  0  0  0  0
  -21.5237   13.9128  -34.4090 N   0  0  0  0  0  0  0  0  0  0  0  0
  -21.8114   12.5939  -34.5579 C   0  0  0  0  0  0  0  0  0  0  0  0
  -21.7785   11.7313  -33.4678 C   0  0  0  0  0  0  0  0  0  0  0  0
  -21.4479   12.2445  -32.2352 C   0  0  0  0  0  0  0  0  0  0  0  0
  -21.1614   13.5969  -32.1281 C   0  0  0  0  0  0  0  0  0  0  0  0
  -20.7469   14.1975  -30.5368 Cl  0  0  0  0  0  0  0  0  0  0  0  0
  1  2  1  0
  2  3  1  0
  3  4  2  0
  3  5  1  0
  5  6  2  0
  6  7  1  0
  7  8  1  0
  7  9  2  0
  9 10  1  0
 10 11  1  0
 10 12  2  0
 12 13  1  0
 13 14  1  0
 14 15  2  0
 14 16  1  0
 16 17  2  0
 17 18  1  0
 18 19  1  0
 18 20  2  0
 20 21  1  0
 21 22  1  0
 22 23  2  0
 23 24  1  0
 24 25  2  0
 25 26  1  0
 26 27  2  0
 27 28  1  0
 12  5  1  0
 21 16  1  0
 27 22  1  0
M  END
$$$$
