
     RDKit          3D

 27 30  0  0  0  0  0  0  0  0999 V2000
  -21.8584   44.7804  -24.6929 C   0  0  0  0  0  0  0  0  0  0  0  0
  -20.2136   44.8423  -23.9904 S   0  0  0  0  0  6  0  0  0  0  0  0
  -20.1844   45.6388  -22.7338 O   0  0  0  0  0  0  0  0  0  0  0  0
  -19.3123   45.4678  -25.0096 O   0  0  0  0  0  0  0  0  0  0  0  0
  -19.6368   43.2327  -23.6750 N   0  0  0  0  0  0  0  0  0  0  0  0
  -18.4493   42.8749  -23.1230 C   0  0  0  0  0  0  0  0  0  0  0  0
  -18.3823   41.5044  -23.0473 C   0  0  0  0  0  0  0  0  0  0  0  0
  -19.5673   41.0388  -23.5709 C   0  0  0  0  0  0  0  0  0  0  0  0
  -20.2739   42.1042  -23.9275 N   0  0  0  0  0  0  0  0  0  0  0  0
  -19.5593   39.5402  -23.5178 C   0  0  0  0  0  0  0  0  0  0  0  0
  -18.4138   39.2020  -22.7085 N   0  0  0  0  0  0  0  0  0  0  0  0
  -17.7670   37.9853  -23.0940 C   0  0  1  0  0  0  0  0  0  0  0  0
  -16.8220   37.4324  -22.0818 C   0  0  0  0  0  0  0  0  0  0  0  0
  -16.6272   36.0826  -22.1247 O   0  0  0  0  0  0  0  0  0  0  0  0
  -17.7905   35.3383  -22.1915 C   0  0  2  0  0  0  0  0  0  0  0  0
  -17.5887   33.9256  -21.9055 C   0  0  0  0  0  0  0  0  0  0  0  0
  -16.8075   33.1675  -22.7574 C   0  0  0  0  0  0  0  0  0  0  0  0
  -16.5646   31.8247  -22.5618 C   0  0  0  0  0  0  0  0  0  0  0  0
  -15.7944   31.0916  -23.4076 F   0  0  0  0  0  0  0  0  0  0  0  0
  -17.1098   31.1862  -21.4817 C   0  0  0  0  0  0  0  0  0  0  0  0
  -17.9046   31.9122  -20.5963 C   0  0  0  0  0  0  0  0  0  0  0  0
  -18.1330   33.2559  -20.8139 C   0  0  0  0  0  0  0  0  0  0  0  0
  -18.9022   33.9713  -19.9622 F   0  0  0  0  0  0  0  0  0  0  0  0
  -18.3648   35.5932  -23.5778 C   0  0  1  0  0  0  0  0  0  0  0  0
  -19.4596   34.7319  -23.8876 N   0  0  0  0  0  0  0  0  0  0  0  0
  -18.8372   37.0273  -23.5463 C   0  0  0  0  0  0  0  0  0  0  0  0
  -17.5618   40.3454  -22.6358 C   0  0  0  0  0  0  0  0  0  0  0  0
  1  2  1  0
  2  3  2  0
  2  4  2  0
  2  5  1  0
  5  6  1  0
  6  7  2  0
  7  8  1  0
  8  9  2  0
  8 10  1  0
 10 11  1  0
 12 11  1  1
 12 13  1  0
 13 14  1  0
 14 15  1  0
 15 16  1  6
 16 17  2  0
 17 18  1  0
 18 19  1  0
 18 20  2  0
 20 21  1  0
 21 22  2  0
 22 23  1  0
 15 24  1  0
 24 25  1  1
 24 26  1  0
 11 27  1  0
  9  5  1  0
 26 12  1  0
 27  7  1  0
 22 16  1  0
M  END
$$$$
