
     RDKit          3D

 36 40  0  0  0  0  0  0  0  0999 V2000
  -13.5082   -6.0614  -32.4424 C   0  0  0  0  0  0  0  0  0  0  0  0
  -14.2194   -4.8568  -32.4949 O   0  0  0  0  0  0  0  0  0  0  0  0
  -15.1112   -4.4189  -31.5376 C   0  0  0  0  0  0  0  0  0  0  0  0
  -15.3424   -5.2061  -30.4309 C   0  0  0  0  0  0  0  0  0  0  0  0
  -16.2480   -4.7396  -29.4796 C   0  0  0  0  0  0  0  0  0  0  0  0
  -16.5282   -5.5338  -28.2934 C   0  0  0  0  0  0  0  0  0  0  0  0
  -17.7149   -5.9147  -28.1029 O   0  0  0  0  0  0  0  0  0  0  0  0
  -15.4688   -5.8437  -27.4100 N   0  0  0  0  0  0  0  0  0  0  0  0
  -15.7454   -6.6209  -26.2516 C   0  0  0  0  0  0  0  0  0  0  0  0
  -14.6226   -6.9435  -25.3476 C   0  0  0  0  0  0  0  0  0  0  0  0
  -13.2855   -6.3846  -25.6872 C   0  0  1  0  0  0  0  0  0  0  0  0
  -12.7264   -7.2147  -26.6847 O   0  0  0  0  0  0  0  0  0  0  0  0
  -13.4953   -5.0264  -26.3692 C   0  0  1  0  0  0  0  0  0  0  0  0
  -12.2298   -4.3471  -26.5552 N   0  0  0  0  0  0  0  0  0  0  0  0
  -14.1440   -5.3739  -27.6934 C   0  0  0  0  0  0  0  0  0  0  0  0
  -16.8723   -3.5222  -29.6778 C   0  0  0  0  0  0  0  0  0  0  0  0
  -16.6418   -2.7330  -30.7854 C   0  0  0  0  0  0  0  0  0  0  0  0
  -17.0969   -1.5428  -31.2192 N   0  0  0  0  0  0  0  0  0  0  0  0
  -16.5271   -1.2295  -32.3967 C   0  0  0  0  0  0  0  0  0  0  0  0
  -16.7677   -0.0126  -33.1869 C   0  0  0  0  0  0  0  0  0  0  0  0
  -17.4756    0.0103  -34.3713 C   0  0  0  0  0  0  0  0  0  0  0  0
  -17.4810    1.3207  -34.8013 C   0  0  0  0  0  0  0  0  0  0  0  0
  -18.0450    1.9118  -35.9293 C   0  0  0  0  0  0  0  0  0  0  0  0
  -17.8988    3.2570  -36.1189 C   0  0  0  0  0  0  0  0  0  0  0  0
  -17.1951    3.9901  -35.1844 C   0  0  0  0  0  0  0  0  0  0  0  0
  -16.6316    3.4315  -34.0677 C   0  0  0  0  0  0  0  0  0  0  0  0
  -16.7802    2.0644  -33.8752 C   0  0  0  0  0  0  0  0  0  0  0  0
  -16.3601    1.2389  -32.9114 N   0  0  0  0  0  0  0  0  0  0  0  0
  -15.5959    1.6105  -31.7587 C   0  0  0  0  0  0  0  0  0  0  0  0
  -14.1100    1.5209  -32.0429 C   0  0  0  0  0  0  0  0  0  0  0  0
  -13.1994    1.8996  -30.8680 C   0  0  0  0  0  0  0  0  0  0  0  0
  -13.2592    0.5028  -31.4186 C   0  0  0  0  0  0  0  0  0  0  0  0
  -15.7058   -2.2532  -32.6863 N   0  0  0  0  0  0  0  0  0  0  0  0
  -14.8913   -2.3247  -33.8737 C   0  0  0  0  0  0  0  0  0  0  0  0
  -15.7451   -3.2028  -31.7198 C   0  0  0  0  0  0  0  0  0  0  0  0
  -15.1233   -2.9355  -30.3303 Cl  0  0  0  0  0  0  0  0  0  0  0  0
  1  2  1  0
  2  3  1  0
  3  4  2  0
  4  5  1  0
  5  6  1  0
  6  7  2  0
  6  8  1  0
  8  9  1  0
  9 10  1  0
 10 11  1  0
 11 12  1  6
 11 13  1  0
 13 14  1  6
 13 15  1  0
  5 16  2  0
 16 17  1  0
 17 18  1  0
 18 19  2  0
 19 20  1  0
 20 21  2  0
 21 22  1  0
 22 23  2  0
 23 24  1  0
 24 25  2  0
 25 26  1  0
 26 27  2  0
 27 28  1  0
 28 29  1  0
 29 30  1  0
 30 31  1  0
 31 32  1  0
 19 33  1  0
 33 34  1  0
 33 35  1  0
 35  3  1  0
 15  8  1  0
 35 17  2  0
 28 20  1  0
 32 30  1  0
 27 22  1  0
M  END
$$$$
