
     RDKit          3D

 26 28  0  0  0  0  0  0  0  0999 V2000
  -16.0628   43.4760  -24.4116 C   0  0  0  0  0  0  0  0  0  0  0  0
  -17.0638   44.6122  -24.2870 C   0  0  0  0  0  0  0  0  0  0  0  0
  -18.3658   44.1574  -24.9648 C   0  0  0  0  0  0  0  0  0  0  0  0
  -17.3110   44.8558  -22.8855 N   0  0  0  0  0  0  0  0  0  0  0  0
  -17.7352   43.8884  -21.9436 C   0  0  0  0  0  0  0  0  0  0  0  0
  -17.9151   42.5759  -22.3554 C   0  0  0  0  0  0  0  0  0  0  0  0
  -18.3407   41.6960  -21.4096 C   0  0  0  0  0  0  0  0  0  0  0  0
  -18.5705   40.2530  -21.7731 C   0  0  0  0  0  0  0  0  0  0  0  0
  -18.5893   39.2963  -20.7775 C   0  0  0  0  0  0  0  0  0  0  0  0
  -18.8969   37.7698  -21.7841 S   0  0  0  0  0  0  0  0  0  0  0  0
  -18.9433   38.7161  -23.3670 C   0  0  0  0  0  0  0  0  0  0  0  0
  -19.1444   37.9778  -24.6214 N   0  0  0  0  0  0  0  0  0  0  0  0
  -19.6327   38.6503  -25.7973 C   0  0  0  0  0  0  0  0  0  0  0  0
  -18.8697   36.6001  -24.6685 C   0  0  0  0  0  0  0  0  0  0  0  0
  -19.0269   35.9919  -25.7662 O   0  0  0  0  0  0  0  0  0  0  0  0
  -18.4191   35.8472  -23.5189 C   0  0  0  0  0  0  0  0  0  0  0  0
  -17.1033   36.0253  -23.0931 C   0  0  0  0  0  0  0  0  0  0  0  0
  -16.6641   35.3362  -21.9917 C   0  0  0  0  0  0  0  0  0  0  0  0
  -17.4858   34.4721  -21.2913 C   0  0  0  0  0  0  0  0  0  0  0  0
  -16.9876   33.8268  -20.2050 F   0  0  0  0  0  0  0  0  0  0  0  0
  -18.7797   34.2928  -21.7042 C   0  0  0  0  0  0  0  0  0  0  0  0
  -19.2350   34.9878  -22.8225 C   0  0  0  0  0  0  0  0  0  0  0  0
  -18.7611   39.8083  -22.9813 N   0  0  0  0  0  0  0  0  0  0  0  0
  -18.5620   42.1141  -20.1463 N   0  0  0  0  0  0  0  0  0  0  0  0
  -18.3914   43.3701  -19.7363 C   0  0  0  0  0  0  0  0  0  0  0  0
  -17.9727   44.2587  -20.6560 N   0  0  0  0  0  0  0  0  0  0  0  0
  1  2  1  0
  2  3  1  0
  2  4  1  0
  4  5  1  0
  5  6  2  0
  6  7  1  0
  7  8  1  0
  8  9  2  0
  9 10  1  0
 10 11  1  0
 11 12  1  0
 12 13  1  0
 12 14  1  0
 14 15  2  0
 14 16  1  0
 16 17  2  0
 17 18  1  0
 18 19  2  0
 19 20  1  0
 19 21  1  0
 21 22  2  0
 11 23  2  0
  7 24  2  0
 24 25  1  0
 25 26  2  0
 26  5  1  0
 23  8  1  0
 22 16  1  0
M  END
$$$$
