
     RDKit          3D

 22 25  0  0  0  0  0  0  0  0999 V2000
  -19.5819   42.7755  -21.0020 N   0  0  0  0  0  0  0  0  0  0  0  0
  -18.7510   41.6227  -20.9399 C   0  0  0  0  0  0  0  0  0  0  0  0
  -17.7202   41.5842  -20.0665 N   0  0  0  0  0  0  0  0  0  0  0  0
  -16.9346   40.5093  -19.9993 C   0  0  0  0  0  0  0  0  0  0  0  0
  -17.1116   39.4178  -20.7776 N   0  0  0  0  0  0  0  0  0  0  0  0
  -18.1196   39.4319  -21.6451 C   0  0  0  0  0  0  0  0  0  0  0  0
  -18.9419   40.5175  -21.7381 C   0  0  0  0  0  0  0  0  0  0  0  0
  -19.8636   40.2766  -22.6766 N   0  0  0  0  0  0  0  0  0  0  0  0
  -19.6008   39.0418  -23.1550 C   0  0  0  0  0  0  0  0  0  0  0  0
  -18.5311   38.5206  -22.5240 N   0  0  0  0  0  0  0  0  0  0  0  0
  -17.9790   37.1992  -22.8008 C   0  0  2  0  0  0  0  0  0  0  0  0
  -18.7634   36.4718  -23.6624 O   0  0  0  0  0  0  0  0  0  0  0  0
  -18.6498   35.1475  -23.2432 C   0  0  2  0  0  0  0  0  0  0  0  0
  -19.5789   34.2102  -23.9024 C   0  0  0  0  0  0  0  0  0  0  0  0
  -20.3327   33.4331  -22.9997 O   0  0  0  0  0  0  0  0  0  0  0  0
  -19.4039   32.8886  -21.7201 P   0  0  0  0  0  5  0  0  0  0  0  0
  -18.3514   31.8942  -22.1256 O   0  0  0  0  0  0  0  0  0  0  0  0
  -20.4490   32.2520  -20.5476 O   0  0  0  0  0  0  0  0  0  0  0  0
  -18.6197   34.2120  -21.0224 O   0  0  0  0  0  0  0  0  0  0  0  0
  -18.9388   35.3338  -21.7509 C   0  0  1  0  0  0  0  0  0  0  0  0
  -17.9666   36.4615  -21.4692 C   0  0  1  0  0  0  0  0  0  0  0  0
  -16.7166   35.8623  -21.2634 O   0  0  0  0  0  0  0  0  0  0  0  0
  1  2  1  0
  2  3  2  0
  3  4  1  0
  4  5  2  0
  5  6  1  0
  6  7  2  0
  7  8  1  0
  8  9  2  0
  9 10  1  0
 11 10  1  1
 11 12  1  0
 12 13  1  0
 13 14  1  6
 14 15  1  0
 15 16  1  0
 16 17  2  0
 16 18  1  0
 16 19  1  0
 20 19  1  1
 20 21  1  0
 21 22  1  6
  7  2  1  0
 21 11  1  0
 10  6  1  0
 20 13  1  0
M  END
$$$$
