
     RDKit          3D

 25 28  0  0  0  0  0  0  0  0999 V2000
  -21.5368   42.9107  -27.9808 C   0  0  0  0  0  0  0  0  0  0  0  0
  -21.2795   42.0655  -26.7933 C   0  0  0  0  0  0  0  0  0  0  0  0
  -21.4166   42.5534  -25.6891 O   0  0  0  0  0  0  0  0  0  0  0  0
  -20.8636   40.6556  -26.9271 C   0  0  1  0  0  0  0  0  0  0  0  0
  -21.7282   39.9403  -27.7668 O   0  0  0  0  0  0  0  0  0  0  0  0
  -19.4288   40.5348  -27.3881 C   0  0  0  0  0  0  0  0  0  0  0  0
  -18.5907   40.2918  -26.1506 C   0  0  0  0  0  0  0  0  0  0  0  0
  -19.5667   40.3381  -24.9915 C   0  0  0  0  0  0  0  0  0  0  0  0
  -19.0463   39.4906  -23.8677 C   0  0  0  0  0  0  0  0  0  0  0  0
  -19.6775   39.9755  -22.5775 C   0  0  0  0  0  0  0  0  0  0  0  0
  -19.0564   39.3292  -21.3700 C   0  0  2  0  0  0  0  0  0  0  0  0
  -18.2086   40.3016  -20.5798 C   0  0  0  0  0  0  0  0  0  0  0  0
  -18.2635   38.1701  -21.8524 C   0  0  0  0  0  0  0  0  0  0  0  0
  -17.0351   38.0374  -21.3938 C   0  0  0  0  0  0  0  0  0  0  0  0
  -16.2418   36.9048  -21.8569 C   0  0  0  0  0  0  0  0  0  0  0  0
  -15.2772   36.4690  -21.1662 O   0  0  0  0  0  0  0  0  0  0  0  0
  -16.6247   36.3045  -23.1612 C   0  0  0  0  0  0  0  0  0  0  0  0
  -18.1142   35.9991  -23.0510 C   0  0  0  0  0  0  0  0  0  0  0  0
  -18.9238   37.2566  -22.8126 C   0  0  1  0  0  0  0  0  0  0  0  0
  -20.2183   36.8073  -22.1676 C   0  0  0  0  0  0  0  0  0  0  0  0
  -19.1584   38.0262  -24.0833 C   0  0  0  0  0  0  0  0  0  0  0  0
  -20.4606   37.5975  -24.7150 C   0  0  0  0  0  0  0  0  0  0  0  0
  -20.8445   38.4333  -25.8872 C   0  0  0  0  0  0  0  0  0  0  0  0
  -20.8391   39.9145  -25.6059 C   0  0  2  0  0  0  0  0  0  0  0  0
  -22.0708   40.3242  -24.8448 C   0  0  0  0  0  0  0  0  0  0  0  0
  1  2  1  0
  2  3  2  0
  2  4  1  0
  4  5  1  6
  4  6  1  0
  6  7  1  0
  7  8  1  0
  8  9  1  0
  9 10  1  0
 10 11  1  0
 11 12  1  6
 11 13  1  0
 13 14  2  0
 14 15  1  0
 15 16  2  0
 15 17  1  0
 17 18  1  0
 18 19  1  0
 19 20  1  1
 19 21  1  0
 21 22  1  0
 22 23  1  0
 23 24  1  0
 24 25  1  1
 24  4  1  0
 24  8  1  0
 21  9  1  0
 19 13  1  0
M  END
$$$$
