
     RDKit          3D

 19 20  0  0  0  0  0  0  0  0999 V2000
  -20.5467   33.8131  -22.8927 O   0  0  0  0  0  0  0  0  0  0  0  0
  -19.4008   33.5432  -22.4812 C   0  0  0  0  0  0  0  0  0  0  0  0
  -18.7113   32.5001  -23.0766 O   0  0  0  0  0  0  0  0  0  0  0  0
  -18.7238   34.2750  -21.3850 C   0  0  0  0  0  0  0  0  0  0  0  0
  -18.4663   35.6513  -21.7530 N   0  0  0  0  0  0  0  0  0  0  0  0
  -17.1745   36.2356  -21.9433 C   0  0  0  0  0  0  0  0  0  0  0  0
  -16.0841   35.8551  -21.4721 O   0  0  0  0  0  0  0  0  0  0  0  0
  -17.3378   37.4394  -22.8431 C   0  0  0  0  0  0  0  0  0  0  0  0
  -18.7048   37.9128  -22.5200 C   0  0  0  0  0  0  0  0  0  0  0  0
  -18.7741   39.0481  -21.5702 C   0  0  0  0  0  0  0  0  0  0  0  0
  -18.5417   40.3273  -22.3020 C   0  0  0  0  0  0  0  0  0  0  0  0
  -17.2060   40.6800  -22.5258 C   0  0  0  0  0  0  0  0  0  0  0  0
  -16.9443   41.8386  -23.2070 C   0  0  0  0  0  0  0  0  0  0  0  0
  -17.9536   42.6646  -23.6771 C   0  0  0  0  0  0  0  0  0  0  0  0
  -17.5715   44.1443  -24.5473 Cl  0  0  0  0  0  0  0  0  0  0  0  0
  -19.2515   42.2846  -23.4381 C   0  0  0  0  0  0  0  0  0  0  0  0
  -19.5449   41.1245  -22.7559 C   0  0  0  0  0  0  0  0  0  0  0  0
  -19.3952   36.6892  -21.9982 C   0  0  0  0  0  0  0  0  0  0  0  0
  -20.6187   36.6206  -21.8145 O   0  0  0  0  0  0  0  0  0  0  0  0
  1  2  2  0
  2  3  1  0
  2  4  1  0
  4  5  1  0
  5  6  1  0
  6  7  2  0
  6  8  1  0
  8  9  1  0
  9 10  1  0
 10 11  1  0
 11 12  2  0
 12 13  1  0
 13 14  2  0
 14 15  1  0
 14 16  1  0
 16 17  2  0
  9 18  1  0
 18 19  2  0
 18  5  1  0
 17 11  1  0
M  END
$$$$
