
     RDKit          3D

 29 31  0  0  0  0  0  0  0  0999 V2000
  -11.9602   12.7187  -31.5363 C   0  0  0  0  0  0  0  0  0  0  0  0
  -13.1433   13.6240  -31.6254 C   0  0  0  0  0  0  0  0  0  0  0  0
  -13.2980   14.5180  -32.6572 C   0  0  0  0  0  0  0  0  0  0  0  0
  -14.3483   15.3209  -32.7380 N   0  0  0  0  0  0  0  0  0  0  0  0
  -15.3764   15.3473  -31.8188 C   0  0  0  0  0  0  0  0  0  0  0  0
  -16.4464   16.3043  -32.0168 C   0  0  0  0  0  0  0  0  0  0  0  0
  -17.7445   16.0720  -32.3047 C   0  0  0  0  0  0  0  0  0  0  0  0
  -18.6832   17.0915  -32.5411 C   0  0  0  0  0  0  0  0  0  0  0  0
  -20.0193   16.7942  -32.8346 N   0  0  0  0  0  0  0  0  0  0  0  0
  -20.3713   15.4470  -33.2255 C   0  0  0  0  0  0  0  0  0  0  0  0
  -21.6441   15.1035  -32.4333 C   0  0  0  0  0  0  0  0  0  0  0  0
  -22.6653   15.9236  -33.0146 N   0  0  0  0  0  0  0  0  0  0  0  0
  -23.9260   15.3768  -33.3513 C   0  0  0  0  0  0  0  0  0  0  0  0
  -23.9967   14.2927  -34.0379 O   0  0  0  0  0  0  0  0  0  0  0  0
  -25.1880   16.0273  -32.9327 C   0  0  0  0  0  0  0  0  0  0  0  0
  -26.1496   15.1356  -32.2582 C   0  0  0  0  0  0  0  0  0  0  0  0
  -27.5418   15.9191  -31.5455 S   0  0  0  0  0  6  0  0  0  0  0  0
  -28.7520   14.7116  -30.9919 C   0  0  0  0  0  0  0  0  0  0  0  0
  -28.2078   16.8364  -32.4927 O   0  0  0  0  0  0  0  0  0  0  0  0
  -27.1424   16.6628  -30.2744 O   0  0  0  0  0  0  0  0  0  0  0  0
  -22.3956   17.3139  -33.2550 C   0  0  0  0  0  0  0  0  0  0  0  0
  -21.0677   17.7737  -32.7657 C   0  0  0  0  0  0  0  0  0  0  0  0
  -18.2508   18.3616  -32.4753 N   0  0  0  0  0  0  0  0  0  0  0  0
  -16.9988   18.6810  -32.2017 C   0  0  0  0  0  0  0  0  0  0  0  0
  -16.0965   17.6759  -31.9730 C   0  0  0  0  0  0  0  0  0  0  0  0
  -14.4370   18.0875  -31.6024 Cl  0  0  0  0  0  0  0  0  0  0  0  0
  -15.2399   14.4747  -30.7930 C   0  0  0  0  0  0  0  0  0  0  0  0
  -16.2237   14.4306  -29.6835 C   0  0  0  0  0  0  0  0  0  0  0  0
  -14.1327   13.6078  -30.6831 C   0  0  0  0  0  0  0  0  0  0  0  0
  1  2  1  0
  2  3  2  0
  3  4  1  0
  4  5  2  0
  5  6  1  0
  6  7  2  0
  7  8  1  0
  8  9  1  0
  9 10  1  0
 10 11  1  0
 11 12  1  0
 12 13  1  0
 13 14  2  0
 13 15  1  0
 15 16  1  0
 16 17  1  0
 17 18  1  0
 17 19  2  0
 17 20  2  0
 12 21  1  0
 21 22  1  0
  8 23  2  0
 23 24  1  0
 24 25  2  0
 25 26  1  0
  5 27  1  0
 27 28  1  0
 27 29  2  0
 29  2  1  0
 25  6  1  0
 22  9  1  0
M  END
$$$$
