
     RDKit          3D

 17 19  0  0  0  0  0  0  0  0999 V2000
  -12.1074   -5.9474  -34.3815 C   0  0  0  0  0  0  0  0  0  0  0  0
  -12.2809   -4.6444  -33.7704 N   0  0  0  0  0  0  0  0  0  0  0  0
  -11.7755   -3.6277  -34.6707 C   0  0  0  0  0  0  0  0  0  0  0  0
  -11.7195   -2.3277  -33.9117 C   0  0  0  0  0  0  0  0  0  0  0  0
  -12.7873   -2.3829  -32.8319 C   0  0  0  0  0  0  0  0  0  0  0  0
  -12.8684   -1.0677  -32.2199 C   0  0  0  0  0  0  0  0  0  0  0  0
  -11.7219   -0.3333  -31.9089 C   0  0  0  0  0  0  0  0  0  0  0  0
  -12.0726    0.8158  -31.3709 N   0  0  0  0  0  0  0  0  0  0  0  0
  -13.4003    0.9127  -31.2944 C   0  0  0  0  0  0  0  0  0  0  0  0
  -14.2816    1.8741  -30.8301 C   0  0  0  0  0  0  0  0  0  0  0  0
  -15.6423    1.6858  -30.8842 C   0  0  0  0  0  0  0  0  0  0  0  0
  -16.1210    0.5080  -31.4156 C   0  0  0  0  0  0  0  0  0  0  0  0
  -17.4841    0.2574  -31.4984 O   0  0  0  0  0  0  0  0  0  0  0  0
  -15.2505   -0.4611  -31.8832 C   0  0  0  0  0  0  0  0  0  0  0  0
  -13.9090   -0.2565  -31.8211 C   0  0  0  0  0  0  0  0  0  0  0  0
  -14.0071   -2.9513  -33.4578 C   0  0  0  0  0  0  0  0  0  0  0  0
  -13.7121   -4.4722  -33.5351 C   0  0  0  0  0  0  0  0  0  0  0  0
  1  2  1  0
  2  3  1  0
  3  4  1  0
  4  5  1  0
  5  6  1  0
  6  7  2  0
  7  8  1  0
  8  9  1  0
  9 10  2  0
 10 11  1  0
 11 12  2  0
 12 13  1  0
 12 14  1  0
 14 15  2  0
  5 16  1  0
 16 17  1  0
 17  2  1  0
 15  6  1  0
 15  9  1  0
M  END
$$$$
