
     RDKit          3D

  9  9  0  0  0  0  0  0  0  0999 V2000
   -3.1830    6.5749  -40.6806 O   0  0  0  0  0  0  0  0  0  0  0  0
   -2.6210    6.3697  -39.5957 C   0  0  0  0  0  0  0  0  0  0  0  0
   -3.3152    6.6212  -38.4110 C   0  0  0  0  0  0  0  0  0  0  0  0
   -2.8978    6.4788  -37.1081 C   0  0  0  0  0  0  0  0  0  0  0  0
   -1.6140    6.2982  -36.6440 C   0  0  0  0  0  0  0  0  0  0  0  0
   -0.4441    6.2438  -37.4098 C   0  0  0  0  0  0  0  0  0  0  0  0
   -0.2904    5.9891  -38.7706 C   0  0  0  0  0  0  0  0  0  0  0  0
   -1.3263    5.8990  -39.7054 C   0  0  0  0  0  0  0  0  0  0  0  0
   -0.9772    5.2453  -40.8893 O   0  0  0  0  0  0  0  0  0  0  0  0
  1  2  2  0
  2  3  1  0
  3  4  2  0
  4  5  1  0
  5  6  2  0
  6  7  1  0
  7  8  2  0
  8  9  1  0
  8  2  1  0
M  END
$$$$
