
     RDKit          3D

 38 42  0  0  0  0  0  0  0  0999 V2000
  -22.1276   20.4281  -35.1807 C   0  0  0  0  0  0  0  0  0  0  0  0
  -21.2920   19.1765  -35.2944 C   0  0  0  0  0  0  0  0  0  0  0  0
  -21.7520   18.1916  -34.2731 C   0  0  0  0  0  0  0  0  0  0  0  0
  -21.6183   18.5764  -36.6686 C   0  0  0  0  0  0  0  0  0  0  0  0
  -19.8233   19.4583  -35.2977 C   0  0  0  0  0  0  0  0  0  0  0  0
  -18.9905   18.3061  -35.8205 C   0  0  1  0  0  0  0  0  0  0  0  0
  -19.0516   18.1623  -37.2291 N   0  0  0  0  0  0  0  0  0  0  0  0
  -17.8291   17.4965  -37.6270 C   0  0  1  0  0  0  0  0  0  0  0  0
  -17.4565   18.0115  -38.9635 C   0  0  0  0  0  0  0  0  0  0  0  0
  -18.2307   18.7942  -39.5623 O   0  0  0  0  0  0  0  0  0  0  0  0
  -16.2501   17.6667  -39.6245 N   0  0  0  0  0  0  0  0  0  0  0  0
  -15.7326   18.5183  -40.6764 C   0  0  1  0  0  0  0  0  0  0  0  0
  -14.3325   18.0487  -40.9923 C   0  0  0  0  0  0  0  0  0  0  0  0
  -14.4659   16.8930  -41.9696 C   0  0  0  0  0  0  0  0  0  0  0  0
  -14.8530   17.4933  -43.3147 C   0  0  2  0  0  0  0  0  0  0  0  0
  -13.6595   17.8134  -43.9737 O   0  0  0  0  0  0  0  0  0  0  0  0
  -15.7259   18.7070  -43.1111 C   0  0  0  0  0  0  0  0  0  0  0  0
  -16.6124   18.4374  -41.9142 C   0  0  0  0  0  0  0  0  0  0  0  0
  -16.7957   17.8576  -36.5760 C   0  0  2  0  0  0  0  0  0  0  0  0
  -15.9151   16.7807  -36.1654 C   0  0  0  0  0  0  0  0  0  0  0  0
  -14.5496   16.9360  -36.3636 C   0  0  0  0  0  0  0  0  0  0  0  0
  -13.6683   15.9641  -35.9785 C   0  0  0  0  0  0  0  0  0  0  0  0
  -14.1497   14.8060  -35.3807 C   0  0  0  0  0  0  0  0  0  0  0  0
  -15.5080   14.6592  -35.1873 C   0  0  0  0  0  0  0  0  0  0  0  0
  -16.1267   13.1938  -34.4299 Cl  0  0  0  0  0  0  0  0  0  0  0  0
  -16.4076   15.6325  -35.5717 C   0  0  0  0  0  0  0  0  0  0  0  0
  -17.7566   15.4253  -35.3627 F   0  0  0  0  0  0  0  0  0  0  0  0
  -17.5303   18.6645  -35.5899 C   0  0  1  0  0  0  0  0  0  0  0  0
  -17.3246   20.1150  -35.9807 C   0  0  0  0  0  0  0  0  0  0  0  0
  -17.5944   20.6654  -37.0642 O   0  0  0  0  0  0  0  0  0  0  0  0
  -16.7536   20.7406  -34.8572 N   0  0  0  0  0  0  0  0  0  0  0  0
  -16.6591   19.8110  -33.7791 C   0  0  0  0  0  0  0  0  0  0  0  0
  -16.1975   20.0684  -32.5054 C   0  0  0  0  0  0  0  0  0  0  0  0
  -16.2349   19.0456  -31.5728 C   0  0  0  0  0  0  0  0  0  0  0  0
  -15.6534   19.3393  -29.9388 Cl  0  0  0  0  0  0  0  0  0  0  0  0
  -16.7236   17.8137  -31.9274 C   0  0  0  0  0  0  0  0  0  0  0  0
  -17.1789   17.6012  -33.2287 C   0  0  0  0  0  0  0  0  0  0  0  0
  -17.1601   18.5825  -34.1870 C   0  0  0  0  0  0  0  0  0  0  0  0
  1  2  1  0
  2  3  1  0
  2  4  1  0
  2  5  1  0
  6  5  1  6
  6  7  1  0
  7  8  1  0
  8  9  1  6
  9 10  2  0
  9 11  1  0
 12 11  1  1
 12 13  1  0
 13 14  1  0
 14 15  1  0
 15 16  1  1
 15 17  1  0
 17 18  1  0
  8 19  1  0
 19 20  1  1
 20 21  2  0
 21 22  1  0
 22 23  2  0
 23 24  1  0
 24 25  1  0
 24 26  2  0
 26 27  1  0
 19 28  1  0
 28 29  1  6
 29 30  2  0
 29 31  1  0
 31 32  1  0
 32 33  2  0
 33 34  1  0
 34 35  1  0
 34 36  2  0
 36 37  1  0
 37 38  2  0
 28  6  1  0
 38 32  1  0
 18 12  1  0
 26 20  1  0
 38 28  1  0
M  END
$$$$
