
     RDKit          3D

 20 22  0  0  0  0  0  0  0  0999 V2000
  -16.5625   34.9938  -22.1988 O   0  0  0  0  0  0  0  0  0  0  0  0
  -17.2980   35.9629  -22.5270 C   0  0  0  0  0  0  0  0  0  0  0  0
  -18.3227   36.0146  -23.5597 C   0  0  0  0  0  0  0  0  0  0  0  0
  -18.6657   35.0956  -24.3203 O   0  0  0  0  0  0  0  0  0  0  0  0
  -18.8870   37.3164  -23.5639 N   0  0  0  0  0  0  0  0  0  0  0  0
  -19.9559   37.8021  -24.4497 C   0  0  0  0  0  0  0  0  0  0  0  0
  -19.5206   37.5420  -25.8623 C   0  0  0  0  0  0  0  0  0  0  0  0
  -20.3499   38.3052  -26.8246 C   0  0  0  0  0  0  0  0  0  0  0  0
  -21.4481   37.7821  -27.4664 C   0  0  0  0  0  0  0  0  0  0  0  0
  -22.1903   38.5475  -28.3615 C   0  0  0  0  0  0  0  0  0  0  0  0
  -21.8400   39.8559  -28.6277 C   0  0  0  0  0  0  0  0  0  0  0  0
  -20.7328   40.3880  -27.9828 C   0  0  0  0  0  0  0  0  0  0  0  0
  -19.9952   39.6271  -27.0930 C   0  0  0  0  0  0  0  0  0  0  0  0
  -18.2148   38.0453  -22.5484 C   0  0  0  0  0  0  0  0  0  0  0  0
  -18.3644   39.3622  -22.1189 C   0  0  0  0  0  0  0  0  0  0  0  0
  -17.6006   39.8858  -21.1000 C   0  0  0  0  0  0  0  0  0  0  0  0
  -16.6507   39.1224  -20.4598 C   0  0  0  0  0  0  0  0  0  0  0  0
  -15.5837   39.8573  -19.0350 Br  0  0  0  0  0  0  0  0  0  0  0  0
  -16.4908   37.8209  -20.8720 C   0  0  0  0  0  0  0  0  0  0  0  0
  -17.2645   37.2866  -21.9057 C   0  0  0  0  0  0  0  0  0  0  0  0
  1  2  2  0
  2  3  1  0
  3  4  2  0
  3  5  1  0
  5  6  1  0
  6  7  1  0
  7  8  1  0
  8  9  2  0
  9 10  1  0
 10 11  2  0
 11 12  1  0
 12 13  2  0
  5 14  1  0
 14 15  2  0
 15 16  1  0
 16 17  2  0
 17 18  1  0
 17 19  1  0
 19 20  2  0
 20  2  1  0
 13  8  1  0
 20 14  1  0
M  END
$$$$
