
     RDKit          3D

  6  4  0  0  0  0  0  0  0  0999 V2000
  -18.2161   16.0315  -32.6198 C   0  0  0  0  0  0  0  0  0  0  0  0
  -17.4102   16.0755  -31.4424 N   0  0  0  0  0  4  0  0  0  0  0  0
  -17.9687   15.4053  -30.3057 C   0  0  0  0  0  0  0  0  0  0  0  0
  -17.1574   17.4850  -31.1763 C   0  0  0  0  0  0  0  0  0  0  0  0
  -16.1580   15.3714  -31.7556 C   0  0  0  0  0  0  0  0  0  0  0  0
  -17.3648   16.0755  -31.4825 Cl  0  0  0  0  0 15  0  0  0  0  0  0
  1  2  1  0
  2  3  1  0
  2  4  1  0
  2  5  1  0
M  CHG  2   2   1   6  -1
M  END
$$$$
