
     RDKit          3D

 14 13  0  0  0  0  0  0  0  0999 V2000
  -21.5640   32.1118  -20.8107 C   0  0  0  0  0  0  0  0  0  0  0  0
  -21.3888   32.1420  -22.2899 C   0  0  0  0  0  0  0  0  0  0  0  0
  -22.2692   32.6326  -23.0873 N   0  0  0  0  0  0  0  0  0  0  0  0
  -20.1785   31.5966  -22.8166 N   0  0  0  0  0  0  0  0  0  0  0  0
  -18.9195   32.0505  -22.2521 C   0  0  0  0  0  0  0  0  0  0  0  0
  -18.7664   33.5084  -22.6318 C   0  0  0  0  0  0  0  0  0  0  0  0
  -17.9614   34.4890  -21.3406 S   0  0  0  0  0  0  0  0  0  0  0  0
  -17.0214   35.8707  -22.0560 C   0  0  0  0  0  0  0  0  0  0  0  0
  -17.9371   36.6299  -22.9661 C   0  0  0  0  0  0  0  0  0  0  0  0
  -18.5171   37.8825  -22.3822 C   0  0  2  0  0  0  0  0  0  0  0  0
  -19.1391   38.6087  -23.4842 N   0  0  0  0  0  0  0  0  0  0  0  0
  -17.5661   38.7705  -21.7207 C   0  0  0  0  0  0  0  0  0  0  0  0
  -17.4100   38.6961  -20.4807 O   0  0  0  0  0  0  0  0  0  0  0  0
  -16.7952   39.7240  -22.3924 O   0  0  0  0  0  0  0  0  0  0  0  0
  1  2  1  0
  2  3  2  0
  2  4  1  0
  4  5  1  0
  5  6  1  0
  6  7  1  0
  7  8  1  0
  8  9  1  0
  9 10  1  0
 10 11  1  6
 10 12  1  0
 12 13  2  0
 12 14  1  0
M  END
$$$$
