
     RDKit          3D

 34 37  0  0  0  0  0  0  0  0999 V2000
  -16.1118   45.6466  -19.0297 C   0  0  0  0  0  0  0  0  0  0  0  0
  -16.6407   46.0857  -20.2661 O   0  0  0  0  0  0  0  0  0  0  0  0
  -17.1886   45.1293  -21.1189 C   0  0  0  0  0  0  0  0  0  0  0  0
  -17.2406   43.7864  -20.8229 C   0  0  0  0  0  0  0  0  0  0  0  0
  -17.7859   42.8550  -21.6767 C   0  0  0  0  0  0  0  0  0  0  0  0
  -17.8418   41.5060  -21.3863 C   0  0  0  0  0  0  0  0  0  0  0  0
  -18.3955   40.5534  -22.2491 C   0  0  0  0  0  0  0  0  0  0  0  0
  -18.9040   40.9821  -23.4303 N   0  0  0  0  0  0  0  0  0  0  0  0
  -19.5423   40.1251  -24.3886 C   0  0  0  0  0  0  0  0  0  0  0  0
  -18.5660   39.4990  -25.3493 C   0  0  0  0  0  0  0  0  0  0  0  0
  -19.2303   38.6192  -26.3932 C   0  0  0  0  0  0  0  0  0  0  0  0
  -19.9569   37.5157  -25.8410 N   0  0  0  0  0  0  0  0  0  0  0  0
  -20.5397   36.6960  -26.8351 C   0  0  0  0  0  0  0  0  0  0  0  0
  -21.6696   37.2253  -27.6282 C   0  0  0  0  0  0  0  0  0  0  0  0
  -21.4304   38.3584  -28.3796 O   0  0  0  0  0  0  0  0  0  0  0  0
  -18.8663   42.3116  -23.7558 C   0  0  0  0  0  0  0  0  0  0  0  0
  -19.3339   42.7135  -24.8488 O   0  0  0  0  0  0  0  0  0  0  0  0
  -18.3150   43.2305  -22.8901 C   0  0  0  0  0  0  0  0  0  0  0  0
  -18.2689   44.5822  -23.2016 C   0  0  0  0  0  0  0  0  0  0  0  0
  -17.7232   45.5152  -22.3474 C   0  0  0  0  0  0  0  0  0  0  0  0
  -17.6866   46.8628  -22.6778 O   0  0  0  0  0  0  0  0  0  0  0  0
  -18.2329   47.2620  -23.9322 C   0  0  0  0  0  0  0  0  0  0  0  0
  -18.2948   39.2282  -21.6687 C   0  0  0  0  0  0  0  0  0  0  0  0
  -18.6694   37.9779  -22.1043 C   0  0  0  0  0  0  0  0  0  0  0  0
  -18.4123   36.9024  -21.2859 C   0  0  0  0  0  0  0  0  0  0  0  0
  -17.8033   37.0159  -20.0639 C   0  0  0  0  0  0  0  0  0  0  0  0
  -17.4300   38.2745  -19.6350 C   0  0  0  0  0  0  0  0  0  0  0  0
  -17.6725   39.3869  -20.4328 C   0  0  0  0  0  0  0  0  0  0  0  0
  -17.3697   40.7872  -20.2097 C   0  0  0  0  0  0  0  0  0  0  0  0
  -16.8143   41.2454  -19.1977 O   0  0  0  0  0  0  0  0  0  0  0  0
  -17.6802   35.7678  -19.4738 O   0  0  0  0  0  0  0  0  0  0  0  0
  -18.4918   34.8638  -20.2104 C   0  0  0  0  0  0  0  0  0  0  0  0
  -18.6698   35.5296  -21.4462 O   0  0  0  0  0  0  0  0  0  0  0  0
  -18.8910   40.0658  -23.4211 Cl  0  0  0  0  0  0  0  0  0  0  0  0
  1  2  1  0
  2  3  1  0
  3  4  2  0
  4  5  1  0
  5  6  1  0
  6  7  2  0
  7  8  1  0
  8  9  1  0
  9 10  1  0
 10 11  1  0
 11 12  1  0
 12 13  1  0
 13 14  1  0
 14 15  1  0
  8 16  1  0
 16 17  2  0
 16 18  1  0
 18 19  1  0
 19 20  2  0
 20 21  1  0
 21 22  1  0
  7 23  1  0
 23 24  2  0
 24 25  1  0
 25 26  2  0
 26 27  1  0
 27 28  2  0
 28 29  1  0
 29 30  2  0
 26 31  1  0
 31 32  1  0
 32 33  1  0
 20  3  1  0
 28 23  1  0
 18  5  2  0
 33 25  1  0
 29  6  1  0
M  END
$$$$
