
     RDKit          3D

 32 35  0  0  0  0  0  0  0  0999 V2000
  -29.6182   21.4940  -26.0477 C   0  0  0  0  0  0  0  0  0  0  0  0
  -28.9448   21.2884  -27.2556 O   0  0  0  0  0  0  0  0  0  0  0  0
  -28.5141   20.0337  -27.6607 C   0  0  0  0  0  0  0  0  0  0  0  0
  -29.4064   18.9777  -27.5469 C   0  0  0  0  0  0  0  0  0  0  0  0
  -29.0535   17.7000  -27.9164 C   0  0  0  0  0  0  0  0  0  0  0  0
  -29.9538   16.5370  -27.8217 C   0  0  0  0  0  0  0  0  0  0  0  0
  -27.8059   17.5234  -28.3921 N   0  0  0  0  0  0  0  0  0  0  0  0
  -26.9404   18.5255  -28.5081 C   0  0  0  0  0  0  0  0  0  0  0  0
  -25.7916   18.2835  -28.9612 O   0  0  0  0  0  0  0  0  0  0  0  0
  -27.2611   19.8436  -28.1441 C   0  0  0  0  0  0  0  0  0  0  0  0
  -26.2494   20.8785  -28.3978 C   0  0  0  0  0  0  0  0  0  0  0  0
  -26.2164   21.2921  -29.7628 N   0  0  0  0  0  0  0  0  0  0  0  0
  -25.4893   22.3254  -30.3522 C   0  0  0  0  0  0  0  0  0  0  0  0
  -24.4473   22.7353  -29.7972 O   0  0  0  0  0  0  0  0  0  0  0  0
  -25.9123   22.9464  -31.6188 C   0  0  0  0  0  0  0  0  0  0  0  0
  -25.0900   23.7214  -32.4346 C   0  0  0  0  0  0  0  0  0  0  0  0
  -23.6492   23.9683  -32.1240 C   0  0  0  0  0  0  0  0  0  0  0  0
  -25.7782   24.1838  -33.4927 N   0  0  0  0  0  0  0  0  0  0  0  0
  -25.2762   25.0046  -34.5478 C   0  0  2  0  0  0  0  0  0  0  0  0
  -23.8669   24.6483  -34.8981 C   0  0  0  0  0  0  0  0  0  0  0  0
  -25.5286   26.4788  -34.3873 C   0  0  0  0  0  0  0  0  0  0  0  0
  -26.0620   27.0941  -35.6813 C   0  0  0  0  0  0  0  0  0  0  0  0
  -26.3956   28.5434  -35.3012 C   0  0  0  0  0  0  0  0  0  0  0  0
  -25.2468   29.2134  -34.9466 O   0  0  0  0  0  0  0  0  0  0  0  0
  -24.5336   28.6512  -33.9209 C   0  0  0  0  0  0  0  0  0  0  0  0
  -24.2005   27.1888  -34.1317 C   0  0  0  0  0  0  0  0  0  0  0  0
  -27.0525   23.7155  -33.3738 C   0  0  0  0  0  0  0  0  0  0  0  0
  -28.1781   23.8855  -34.1512 C   0  0  0  0  0  0  0  0  0  0  0  0
  -29.3743   23.3198  -33.8064 C   0  0  0  0  0  0  0  0  0  0  0  0
  -29.4343   22.5786  -32.6681 C   0  0  0  0  0  0  0  0  0  0  0  0
  -28.3512   22.3573  -31.8292 C   0  0  0  0  0  0  0  0  0  0  0  0
  -27.1426   22.9433  -32.2057 C   0  0  0  0  0  0  0  0  0  0  0  0
  1  2  1  0
  2  3  1  0
  3  4  1  0
  4  5  2  0
  5  6  1  0
  5  7  1  0
  7  8  1  0
  8  9  2  0
  8 10  1  0
 10 11  1  0
 11 12  1  0
 12 13  1  0
 13 14  2  0
 13 15  1  0
 15 16  2  0
 16 17  1  0
 16 18  1  0
 18 19  1  0
 19 20  1  1
 19 21  1  0
 21 22  1  0
 22 23  1  0
 23 24  1  0
 24 25  1  0
 25 26  1  0
 18 27  1  0
 27 28  2  0
 28 29  1  0
 29 30  2  0
 30 31  1  0
 31 32  2  0
 10  3  2  0
 32 15  1  0
 26 21  1  0
 32 27  1  0
M  END
$$$$
