
     RDKit          3D

 30 31  0  0  0  0  0  0  0  0999 V2000
  -28.8467   23.2012  -34.7783 O   0  0  0  0  0  0  0  0  0  0  0  0
  -29.3856   23.9396  -33.7092 C   0  0  0  0  0  0  0  0  0  0  0  0
  -28.6142   23.5731  -32.4945 C   0  0  0  0  0  0  0  0  0  0  0  0
  -27.4064   22.8961  -32.6497 C   0  0  0  0  0  0  0  0  0  0  0  0
  -26.6809   22.5505  -31.5411 C   0  0  0  0  0  0  0  0  0  0  0  0
  -25.3962   21.8325  -31.6954 C   0  0  0  0  0  0  0  0  0  0  0  0
  -25.4062   21.0252  -32.8204 O   0  0  0  0  0  0  0  0  0  0  0  0
  -25.0229   21.1613  -30.4197 C   0  0  0  0  0  0  0  0  0  0  0  0
  -25.9488   20.1863  -29.9277 N   0  0  0  0  0  0  0  0  0  0  0  0
  -25.9052   20.0777  -28.5097 C   0  0  0  0  0  0  0  0  0  0  0  0
  -27.2829   20.2661  -27.8598 C   0  0  0  0  0  0  0  0  0  0  0  0
  -27.7688   18.9625  -27.2948 C   0  0  0  0  0  0  0  0  0  0  0  0
  -29.1273   19.1375  -26.6768 C   0  0  0  0  0  0  0  0  0  0  0  0
  -29.5666   17.7986  -26.0490 C   0  0  0  0  0  0  0  0  0  0  0  0
  -31.0457   17.8469  -25.8673 C   0  0  0  0  0  0  0  0  0  0  0  0
  -31.6798   16.6929  -26.2447 O   0  0  0  0  0  0  0  0  0  0  0  0
  -33.0040   16.6908  -25.8648 C   0  0  0  0  0  0  0  0  0  0  0  0
  -33.5162   15.2432  -25.7606 C   0  0  0  0  0  0  0  0  0  0  0  0
  -34.8806   15.2426  -25.1521 C   0  0  0  0  0  0  0  0  0  0  0  0
  -35.3530   13.8070  -24.9910 C   0  0  0  0  0  0  0  0  0  0  0  0
  -36.6831   13.7837  -24.3365 C   0  0  0  0  0  0  0  0  0  0  0  0
  -37.3663   14.9371  -24.0645 C   0  0  0  0  0  0  0  0  0  0  0  0
  -38.5999   14.9143  -23.4614 C   0  0  0  0  0  0  0  0  0  0  0  0
  -39.1986   13.7119  -23.1059 C   0  0  0  0  0  0  0  0  0  0  0  0
  -38.5108   12.5523  -23.3802 C   0  0  0  0  0  0  0  0  0  0  0  0
  -37.2848   12.5739  -23.9789 C   0  0  0  0  0  0  0  0  0  0  0  0
  -27.1908   22.8957  -30.3010 C   0  0  0  0  0  0  0  0  0  0  0  0
  -28.3805   23.5630  -30.1435 C   0  0  0  0  0  0  0  0  0  0  0  0
  -29.0991   23.9042  -31.2657 C   0  0  0  0  0  0  0  0  0  0  0  0
  -30.3244   24.5875  -31.1725 O   0  0  0  0  0  0  0  0  0  0  0  0
  1  2  1  0
  2  3  1  0
  3  4  2  0
  4  5  1  0
  5  6  1  0
  6  7  1  0
  6  8  1  0
  8  9  1  0
  9 10  1  0
 10 11  1  0
 11 12  1  0
 12 13  1  0
 13 14  1  0
 14 15  1  0
 15 16  1  0
 16 17  1  0
 17 18  1  0
 18 19  1  0
 19 20  1  0
 20 21  1  0
 21 22  2  0
 22 23  1  0
 23 24  2  0
 24 25  1  0
 25 26  2  0
  5 27  2  0
 27 28  1  0
 28 29  2  0
 29 30  1  0
 29  3  1  0
 26 21  1  0
M  END
$$$$
