
     RDKit          3D

 23 24  0  0  0  0  0  0  0  0999 V2000
  -19.4178   14.9345  -30.3982 O   0  0  0  0  0  0  0  0  0  0  0  0
  -20.0789   14.8077  -31.4145 C   0  0  0  0  0  0  0  0  0  0  0  0
  -21.5187   14.4998  -31.2514 C   0  0  0  0  0  0  0  0  0  0  0  0
  -22.2914   14.4445  -32.5087 C   0  0  0  0  0  0  0  0  0  0  0  0
  -21.8279   15.2906  -33.6298 C   0  0  0  0  0  0  0  0  0  0  0  0
  -20.3630   15.5091  -33.6848 C   0  0  0  0  0  0  0  0  0  0  0  0
  -19.9211   16.1866  -34.6035 O   0  0  0  0  0  0  0  0  0  0  0  0
  -19.4064   14.9675  -32.7119 C   0  0  0  0  0  0  0  0  0  0  0  0
  -18.1992   15.8314  -32.5098 C   0  0  0  0  0  0  0  0  0  0  0  0
  -18.3823   17.0715  -32.5590 O   0  0  0  0  0  0  0  0  0  0  0  0
  -16.8882   15.2917  -32.2701 C   0  0  0  0  0  0  0  0  0  0  0  0
  -16.7517   13.9413  -31.8935 C   0  0  0  0  0  0  0  0  0  0  0  0
  -15.5326   13.3378  -31.6997 C   0  0  0  0  0  0  0  0  0  0  0  0
  -14.3791   14.0630  -31.8748 C   0  0  0  0  0  0  0  0  0  0  0  0
  -13.0428   13.4148  -31.6659 C   0  0  0  0  0  0  0  0  0  0  0  0
  -13.2555   12.0475  -31.8129 F   0  0  0  0  0  0  0  0  0  0  0  0
  -12.5456   13.6755  -30.4019 F   0  0  0  0  0  0  0  0  0  0  0  0
  -12.1252   13.8748  -32.5963 F   0  0  0  0  0  0  0  0  0  0  0  0
  -14.4811   15.3660  -32.2361 C   0  0  0  0  0  0  0  0  0  0  0  0
  -15.7429   15.9935  -32.4362 C   0  0  0  0  0  0  0  0  0  0  0  0
  -15.6850   17.3435  -32.8001 N   0  0  0  0  0  4  0  0  0  0  0  0
  -15.0902   17.8002  -33.7557 O   0  0  0  0  0  0  0  0  0  0  0  0
  -16.4266   18.2598  -32.0466 O   0  0  0  0  0  1  0  0  0  0  0  0
  1  2  2  0
  2  3  1  0
  3  4  1  0
  4  5  1  0
  5  6  1  0
  6  7  2  0
  6  8  1  0
  8  9  1  0
  9 10  2  0
  9 11  1  0
 11 12  2  0
 12 13  1  0
 13 14  2  0
 14 15  1  0
 15 16  1  0
 15 17  1  0
 15 18  1  0
 14 19  1  0
 19 20  2  0
 20 21  1  0
 21 22  2  0
 21 23  1  0
  8  2  1  0
 20 11  1  0
M  CHG  2  21   1  23  -1
M  END
$$$$
