
     RDKit          3D

 19 20  0  0  0  0  0  0  0  0999 V2000
  -20.1456   41.8482  -24.0066 C   0  0  0  0  0  0  0  0  0  0  0  0
  -19.3985   41.1024  -22.9686 C   0  0  0  0  0  0  0  0  0  0  0  0
  -18.9468   39.8101  -23.1207 C   0  0  0  0  0  0  0  0  0  0  0  0
  -18.2664   39.1632  -22.1454 N   0  0  0  0  0  0  0  0  0  0  0  0
  -17.8471   37.8394  -22.3997 C   0  0  1  0  0  0  0  0  0  0  0  0
  -18.2863   36.7843  -21.4511 C   0  0  0  0  0  0  0  0  0  0  0  0
  -18.5235   35.6011  -22.3758 C   0  0  1  0  0  0  0  0  0  0  0  0
  -19.9145   35.4377  -22.6934 N   0  0  0  0  0  0  0  0  0  0  0  0
  -20.6304   34.4991  -22.4435 N   0  0  0  0  0  4  0  0  0  0  0  0
  -21.5853   33.7030  -22.4274 N   0  0  0  0  0  2  0  0  0  0  0  0
  -17.7256   36.0539  -23.5786 C   0  0  1  0  0  0  0  0  0  0  0  0
  -17.8971   35.2380  -24.7943 C   0  0  0  0  0  0  0  0  0  0  0  0
  -18.0044   36.0773  -25.8883 O   0  0  0  0  0  0  0  0  0  0  0  0
  -18.1958   37.3784  -23.6967 O   0  0  0  0  0  0  0  0  0  0  0  0
  -18.0043   39.7845  -20.9630 C   0  0  0  0  0  0  0  0  0  0  0  0
  -17.3687   39.1332  -20.0951 O   0  0  0  0  0  0  0  0  0  0  0  0
  -18.4289   41.0278  -20.7937 N   0  0  0  0  0  0  0  0  0  0  0  0
  -19.1156   41.7015  -21.7588 C   0  0  0  0  0  0  0  0  0  0  0  0
  -19.5012   42.8688  -21.5694 O   0  0  0  0  0  0  0  0  0  0  0  0
  1  2  1  0
  2  3  2  0
  3  4  1  0
  5  4  1  1
  5  6  1  0
  6  7  1  0
  7  8  1  6
  8  9  2  0
  9 10  2  0
  7 11  1  0
 11 12  1  6
 12 13  1  0
 11 14  1  0
  4 15  1  0
 15 16  2  0
 15 17  1  0
 17 18  1  0
 18 19  2  0
 18  2  1  0
 14  5  1  0
M  CHG  2   9   1  10  -1
M  END
$$$$
