
     RDKit          3D

 57 63  0  0  0  0  0  0  0  0999 V2000
  -21.6094   18.8084  -39.5407 C   0  0  0  0  0  0  0  0  0  0  0  0
  -21.2276   20.1395  -39.0142 C   0  0  0  0  0  0  0  0  0  0  0  0
  -20.0123   20.6900  -39.3185 C   0  0  0  0  0  0  0  0  0  0  0  0
  -19.0219   19.9515  -40.1935 C   0  0  0  0  0  0  0  0  0  0  0  0
  -19.1879   20.0585  -41.5923 C   0  0  0  0  0  0  0  0  0  0  0  0
  -20.1663   20.7821  -42.3372 C   0  0  0  0  0  0  0  0  0  0  0  0
  -20.5109   20.5155  -43.6486 C   0  0  0  0  0  0  0  0  0  0  0  0
  -21.4906   21.4192  -44.0305 C   0  0  0  0  0  0  0  0  0  0  0  0
  -21.6977   22.2035  -42.9181 C   0  0  0  0  0  0  0  0  0  0  0  0
  -22.5812   23.2452  -42.8078 F   0  0  0  0  0  0  0  0  0  0  0  0
  -20.9119   21.8011  -41.9623 O   0  0  0  0  0  0  0  0  0  0  0  0
  -17.8414   19.0365  -42.2535 S   0  0  0  0  0  0  0  0  0  0  0  0
  -17.1837   18.5626  -40.6295 C   0  0  0  0  0  0  0  0  0  0  0  0
  -16.1367   17.7767  -40.3361 N   0  0  0  0  0  0  0  0  0  0  0  0
  -15.8416   17.5701  -39.0412 C   0  0  0  0  0  0  0  0  0  0  0  0
  -16.6157   18.1660  -38.1455 N   0  0  0  0  0  0  0  0  0  0  0  0
  -17.6665   18.9557  -38.3998 C   0  0  0  0  0  0  0  0  0  0  0  0
  -18.3686   19.5034  -37.3649 O   0  0  0  0  0  0  0  0  0  0  0  0
  -17.9859   19.6720  -36.0409 C   0  0  2  0  0  0  0  0  0  0  0  0
  -19.0698   19.4045  -35.0558 C   0  0  0  0  0  0  0  0  0  0  0  0
  -19.8477   18.1803  -35.2652 C   0  0  0  0  0  0  0  0  0  0  0  0
  -21.0145   18.2968  -35.9667 C   0  0  0  0  0  0  0  0  0  0  0  0
  -21.8327   17.2274  -36.2154 C   0  0  0  0  0  0  0  0  0  0  0  0
  -21.4713   15.9776  -35.7422 C   0  0  0  0  0  0  0  0  0  0  0  0
  -20.2996   15.8695  -35.0400 C   0  0  0  0  0  0  0  0  0  0  0  0
  -19.4516   16.9549  -34.7769 C   0  0  0  0  0  0  0  0  0  0  0  0
  -18.3022   16.7971  -34.0804 O   0  0  0  0  0  0  0  0  0  0  0  0
  -17.8623   16.9662  -32.8109 C   0  0  0  0  0  0  0  0  0  0  0  0
  -16.4232   16.8711  -32.5387 C   0  0  0  0  0  0  0  0  0  0  0  0
  -15.6035   15.8160  -32.8997 C   0  0  0  0  0  0  0  0  0  0  0  0
  -14.3266   16.1455  -32.4993 C   0  0  0  0  0  0  0  0  0  0  0  0
  -14.4143   17.3409  -31.9337 N   0  0  0  0  0  0  0  0  0  0  0  0
  -15.6629   17.8025  -31.9443 N   0  0  0  0  0  0  0  0  0  0  0  0
  -15.9799   19.1211  -31.4339 C   0  0  0  0  0  0  0  0  0  0  0  0
  -17.5009   19.3187  -31.4147 C   0  0  0  0  0  0  0  0  0  0  0  0
  -18.0057   18.9415  -32.6446 F   0  0  0  0  0  0  0  0  0  0  0  0
  -18.0700   18.5450  -30.4290 F   0  0  0  0  0  0  0  0  0  0  0  0
  -17.7102   20.6543  -31.2367 F   0  0  0  0  0  0  0  0  0  0  0  0
  -17.1732   20.8372  -35.7105 C   0  0  0  0  0  0  0  0  0  0  0  0
  -16.1847   20.9086  -34.9604 O   0  0  0  0  0  0  0  0  0  0  0  0
  -17.5566   22.0551  -36.3134 O   0  0  0  0  0  0  0  0  0  0  0  0
  -18.0055   19.1929  -39.7693 C   0  0  0  0  0  0  0  0  0  0  0  0
  -19.6468   21.9233  -38.8336 C   0  0  0  0  0  0  0  0  0  0  0  0
  -20.4711   22.6588  -38.0284 C   0  0  0  0  0  0  0  0  0  0  0  0
  -21.6989   22.1085  -37.7172 C   0  0  0  0  0  0  0  0  0  0  0  0
  -22.5433   22.8554  -36.8942 O   0  0  0  0  0  0  0  0  0  0  0  0
  -23.4041   23.8299  -37.4272 C   0  0  0  0  0  0  0  0  0  0  0  0
  -24.1480   24.5680  -36.3393 C   0  0  0  0  0  0  0  0  0  0  0  0
  -24.7812   25.7103  -36.9457 N   0  0  0  0  0  0  0  0  0  0  0  0
  -25.2083   25.5150  -38.2964 C   0  0  0  0  0  0  0  0  0  0  0  0
  -26.1835   24.4024  -38.3983 C   0  0  0  0  0  0  0  0  0  0  0  0
  -27.0935   24.2441  -37.3424 N   0  0  0  0  0  0  0  0  0  0  0  0
  -28.3675   23.6964  -37.6956 C   0  0  0  0  0  0  0  0  0  0  0  0
  -27.1038   25.1808  -36.2978 C   0  0  0  0  0  0  0  0  0  0  0  0
  -25.9532   26.0930  -36.1803 C   0  0  0  0  0  0  0  0  0  0  0  0
  -22.0785   20.8768  -38.1946 C   0  0  0  0  0  0  0  0  0  0  0  0
  -23.6345   20.2122  -37.7839 Cl  0  0  0  0  0  0  0  0  0  0  0  0
  1  2  1  0
  2  3  2  0
  3  4  1  0
  4  5  2  0
  5  6  1  0
  6  7  2  0
  7  8  1  0
  8  9  2  0
  9 10  1  0
  9 11  1  0
  5 12  1  0
 12 13  1  0
 13 14  2  0
 14 15  1  0
 15 16  2  0
 16 17  1  0
 17 18  1  0
 18 19  1  0
 19 20  1  1
 20 21  1  0
 21 22  2  0
 22 23  1  0
 23 24  2  0
 24 25  1  0
 25 26  2  0
 26 27  1  0
 27 28  1  0
 28 29  1  0
 29 30  2  0
 30 31  1  0
 31 32  2  0
 32 33  1  0
 33 34  1  0
 34 35  1  0
 35 36  1  0
 35 37  1  0
 35 38  1  0
 19 39  1  0
 39 40  2  0
 39 41  1  0
 17 42  2  0
  3 43  1  0
 43 44  2  0
 44 45  1  0
 45 46  1  0
 46 47  1  0
 47 48  1  0
 48 49  1  0
 49 50  1  0
 50 51  1  0
 51 52  1  0
 52 53  1  0
 52 54  1  0
 54 55  1  0
 45 56  2  0
 56 57  1  0
 56  2  1  0
 42  4  1  0
 55 49  1  0
 11  6  1  0
 42 13  1  0
 26 21  1  0
 33 29  1  0
M  END
$$$$
