
     RDKit          3D

 17 18  0  0  0  0  0  0  0  0999 V2000
  -29.0635   14.1708  -24.3364 C   0  0  0  0  0  0  0  0  0  0  0  0
  -30.2818   14.8104  -24.5836 O   0  0  0  0  0  0  0  0  0  0  0  0
  -30.3854   15.7526  -25.5970 C   0  0  0  0  0  0  0  0  0  0  0  0
  -31.5470   15.8550  -26.3401 C   0  0  0  0  0  0  0  0  0  0  0  0
  -31.6171   16.8063  -27.3443 C   0  0  0  0  0  0  0  0  0  0  0  0
  -30.5665   17.6556  -27.6284 C   0  0  0  0  0  0  0  0  0  0  0  0
  -30.6283   18.6056  -28.6267 C   0  0  0  0  0  0  0  0  0  0  0  0
  -31.8727   18.7264  -29.4340 C   0  0  0  0  0  0  0  0  0  0  0  0
  -29.5773   19.4137  -28.8686 N   0  0  0  0  0  0  0  0  0  0  0  0
  -28.4327   19.3134  -28.1371 C   0  0  0  0  0  0  0  0  0  0  0  0
  -27.3590   20.1895  -28.4356 N   0  0  0  0  0  0  0  0  0  0  0  0
  -27.4119   20.9453  -29.6317 C   0  0  0  0  0  0  0  0  0  0  0  0
  -28.4510   20.8508  -30.4202 N   0  0  0  0  0  0  0  0  0  0  0  0
  -26.3132   21.7869  -29.9256 N   0  0  0  0  0  0  0  0  0  0  0  0
  -28.3732   18.3875  -27.1645 N   0  0  0  0  0  0  0  0  0  0  0  0
  -29.3968   17.5582  -26.8860 C   0  0  0  0  0  0  0  0  0  0  0  0
  -29.3341   16.6080  -25.8869 C   0  0  0  0  0  0  0  0  0  0  0  0
  1  2  1  0
  2  3  1  0
  3  4  2  0
  4  5  1  0
  5  6  2  0
  6  7  1  0
  7  8  1  0
  7  9  2  0
  9 10  1  0
 10 11  1  0
 11 12  1  0
 12 13  2  0
 12 14  1  0
 10 15  2  0
 15 16  1  0
 16 17  2  0
 17  3  1  0
 16  6  1  0
M  END
$$$$
