
     RDKit          3D

 22 24  0  0  0  0  0  0  0  0999 V2000
  -22.8891   17.4015  -35.3212 C   0  0  0  0  0  0  0  0  0  0  0  0
  -21.5559   16.7361  -35.2583 N   0  0  0  0  0  0  0  0  0  0  0  0
  -20.4971   17.6069  -35.0602 C   0  0  0  0  0  0  0  0  0  0  0  0
  -20.7162   18.8834  -35.3842 O   0  0  0  0  0  0  0  0  0  0  0  0
  -19.2015   17.3595  -34.5595 N   0  0  0  0  0  0  0  0  0  0  0  0
  -18.0896   17.2693  -35.3755 C   0  0  0  0  0  0  0  0  0  0  0  0
  -16.9800   17.0944  -34.6573 N   0  0  0  0  0  0  0  0  0  0  0  0
  -17.2888   17.0609  -33.3655 C   0  0  0  0  0  0  0  0  0  0  0  0
  -16.4195   16.8904  -32.2074 C   0  0  0  0  0  0  0  0  0  0  0  0
  -15.3902   17.7601  -31.9959 C   0  0  0  0  0  0  0  0  0  0  0  0
  -14.5722   17.5718  -30.8758 C   0  0  0  0  0  0  0  0  0  0  0  0
  -14.8025   16.5284  -30.0041 C   0  0  0  0  0  0  0  0  0  0  0  0
  -15.8186   15.6900  -30.2345 N   0  0  0  0  0  4  0  0  0  0  0  0
  -16.0514   14.6403  -29.3588 O   0  0  0  0  0  1  0  0  0  0  0  0
  -16.6273   15.8585  -31.3229 C   0  0  0  0  0  0  0  0  0  0  0  0
  -18.6883   17.2307  -33.3377 C   0  0  0  0  0  0  0  0  0  0  0  0
  -21.4473   15.3566  -35.5156 C   0  0  0  0  0  0  0  0  0  0  0  0
  -22.5809   14.7667  -36.3169 C   0  0  0  0  0  0  0  0  0  0  0  0
  -23.1731   13.5245  -35.6834 C   0  0  0  0  0  0  0  0  0  0  0  0
  -23.6424   13.8037  -34.2694 C   0  0  0  0  0  0  0  0  0  0  0  0
  -22.5652   14.4492  -33.4398 C   0  0  0  0  0  0  0  0  0  0  0  0
  -21.2892   14.5931  -34.1838 C   0  0  0  0  0  0  0  0  0  0  0  0
  1  2  1  0
  2  3  1  0
  3  4  2  0
  3  5  1  0
  5  6  1  0
  6  7  2  0
  7  8  1  0
  8  9  1  0
  9 10  2  0
 10 11  1  0
 11 12  2  0
 12 13  1  0
 13 14  1  0
 13 15  2  0
  8 16  2  0
  2 17  1  0
 17 18  1  0
 18 19  1  0
 19 20  1  0
 20 21  1  0
 21 22  1  0
 16  5  1  0
 22 17  1  0
 15  9  1  0
M  CHG  2  13   1  14  -1
M  END
$$$$
