
     RDKit          3D

 22 24  0  0  0  0  0  0  0  0999 V2000
  -17.7755   36.2259  -22.9478 O   0  0  0  0  0  0  0  0  0  0  0  0
  -18.1921   37.3075  -23.4101 C   0  0  0  0  0  0  0  0  0  0  0  0
  -19.0377   37.4585  -24.6066 C   0  0  0  0  0  0  0  0  0  0  0  0
  -19.5809   36.0859  -25.5607 Cl  0  0  0  0  0  0  0  0  0  0  0  0
  -19.3029   38.7095  -24.8298 C   0  0  0  0  0  0  0  0  0  0  0  0
  -20.0844   39.2799  -25.8812 N   0  0  0  0  0  0  0  0  0  0  0  0
  -19.9828   40.7014  -26.1596 C   0  0  0  0  0  0  0  0  0  0  0  0
  -21.4091   41.2468  -26.0919 C   0  0  0  0  0  0  0  0  0  0  0  0
  -22.1126   40.6055  -27.1267 O   0  0  0  0  0  0  0  0  0  0  0  0
  -22.3101   39.2904  -26.7688 C   0  0  0  0  0  0  0  0  0  0  0  0
  -20.9885   38.5133  -26.7017 C   0  0  0  0  0  0  0  0  0  0  0  0
  -18.6212   39.4818  -23.7525 C   0  0  0  0  0  0  0  0  0  0  0  0
  -18.6823   40.7360  -23.6819 O   0  0  0  0  0  0  0  0  0  0  0  0
  -17.9485   38.5941  -22.8975 N   0  0  0  0  0  0  0  0  0  0  0  0
  -17.1788   38.9742  -21.7432 C   0  0  0  0  0  0  0  0  0  0  0  0
  -15.9104   38.4379  -21.5385 C   0  0  0  0  0  0  0  0  0  0  0  0
  -15.1209   38.7656  -20.4454 C   0  0  0  0  0  0  0  0  0  0  0  0
  -15.5952   39.6485  -19.5256 C   0  0  0  0  0  0  0  0  0  0  0  0
  -14.6685   40.1173  -18.1196 Cl  0  0  0  0  0  0  0  0  0  0  0  0
  -16.8396   40.2034  -19.6846 C   0  0  0  0  0  0  0  0  0  0  0  0
  -17.5072   41.3532  -18.5258 Cl  0  0  0  0  0  0  0  0  0  0  0  0
  -17.6172   39.8600  -20.7915 C   0  0  0  0  0  0  0  0  0  0  0  0
  1  2  2  0
  2  3  1  0
  3  4  1  0
  3  5  2  0
  5  6  1  0
  6  7  1  0
  7  8  1  0
  8  9  1  0
  9 10  1  0
 10 11  1  0
  5 12  1  0
 12 13  2  0
 12 14  1  0
 14 15  1  0
 15 16  2  0
 16 17  1  0
 17 18  2  0
 18 19  1  0
 18 20  1  0
 20 21  1  0
 20 22  2  0
 14  2  1  0
 22 15  1  0
 11  6  1  0
M  END
$$$$
