
     RDKit          3D

 25 28  0  0  0  0  0  0  0  0999 V2000
  -28.4714   18.7984  -30.2055 Cl  0  0  0  0  0  0  0  0  0  0  0  0
  -26.9127   19.5065  -29.7004 C   0  0  0  0  0  0  0  0  0  0  0  0
  -26.2282   20.2979  -30.6168 C   0  0  0  0  0  0  0  0  0  0  0  0
  -25.0425   20.9146  -30.3202 C   0  0  0  0  0  0  0  0  0  0  0  0
  -24.5521   20.7107  -29.0506 C   0  0  0  0  0  0  0  0  0  0  0  0
  -25.2065   19.9326  -28.1219 C   0  0  0  0  0  0  0  0  0  0  0  0
  -26.3948   19.3237  -28.4451 C   0  0  0  0  0  0  0  0  0  0  0  0
  -27.0973   18.4640  -27.4570 C   0  0  0  0  0  0  0  0  0  0  0  0
  -26.6035   18.5850  -26.0730 C   0  0  0  0  0  0  0  0  0  0  0  0
  -26.2953   17.5035  -25.2905 C   0  0  0  0  0  0  0  0  0  0  0  0
  -25.8040   17.7255  -24.0237 C   0  0  0  0  0  0  0  0  0  0  0  0
  -25.5976   18.9673  -23.4831 C   0  0  0  0  0  0  0  0  0  0  0  0
  -25.9104   20.0638  -24.2809 C   0  0  0  0  0  0  0  0  0  0  0  0
  -26.4038   19.8779  -25.5515 C   0  0  0  0  0  0  0  0  0  0  0  0
  -26.9562   17.0682  -27.9159 C   0  0  0  0  0  0  0  0  0  0  0  0
  -25.9195   16.6624  -28.6834 C   0  0  0  0  0  0  0  0  0  0  0  0
  -25.8074   15.3312  -29.1144 C   0  0  0  0  0  0  0  0  0  0  0  0
  -26.7721   14.4394  -28.7442 C   0  0  0  0  0  0  0  0  0  0  0  0
  -27.8482   14.8424  -27.9537 C   0  0  0  0  0  0  0  0  0  0  0  0
  -27.9480   16.1434  -27.5386 C   0  0  0  0  0  0  0  0  0  0  0  0
  -28.5161   18.8428  -27.3591 N   0  0  0  0  0  0  0  0  0  0  0  0
  -29.5118   18.0919  -27.9002 C   0  0  0  0  0  0  0  0  0  0  0  0
  -30.7300   18.6880  -27.6751 C   0  0  0  0  0  0  0  0  0  0  0  0
  -30.4436   19.8053  -26.9919 N   0  0  0  0  0  0  0  0  0  0  0  0
  -29.1034   19.8955  -26.8029 C   0  0  0  0  0  0  0  0  0  0  0  0
  1  2  1  0
  2  3  2  0
  3  4  1  0
  4  5  2  0
  5  6  1  0
  6  7  2  0
  7  8  1  0
  8  9  1  0
  9 10  2  0
 10 11  1  0
 11 12  2  0
 12 13  1  0
 13 14  2  0
  8 15  1  0
 15 16  2  0
 16 17  1  0
 17 18  2  0
 18 19  1  0
 19 20  2  0
  8 21  1  0
 21 22  1  0
 22 23  2  0
 23 24  1  0
 24 25  2  0
  7  2  1  0
 14  9  1  0
 20 15  1  0
 25 21  1  0
M  END
$$$$
