
     RDKit          3D

 28 32  0  0  0  0  0  0  0  0999 V2000
  -17.2332   18.9176  -34.4081 C   0  0  0  0  0  0  0  0  0  0  0  0
  -18.4464   18.1066  -34.0478 C   0  0  0  0  0  0  0  0  0  0  0  0
  -19.7049   18.3123  -34.4550 N   0  0  0  0  0  0  0  0  0  0  0  0
  -20.5030   17.3939  -33.9472 N   0  0  0  0  0  0  0  0  0  0  0  0
  -21.9158   17.2830  -34.1529 C   0  0  0  0  0  0  0  0  0  0  0  0
  -22.5160   17.7375  -35.2553 N   0  0  0  0  0  0  0  0  0  0  0  0
  -23.8346   17.6514  -35.4825 C   0  0  0  0  0  0  0  0  0  0  0  0
  -24.5930   17.0709  -34.5382 N   0  0  0  0  0  0  0  0  0  0  0  0
  -24.0732   16.5860  -33.3987 C   0  0  0  0  0  0  0  0  0  0  0  0
  -24.5748   15.9664  -32.2974 N   0  0  0  0  0  0  0  0  0  0  0  0
  -23.5816   15.6979  -31.4518 C   0  0  0  0  0  0  0  0  0  0  0  0
  -22.4289   16.1441  -32.0042 N   0  0  0  0  0  0  0  0  0  0  0  0
  -22.7190   16.6883  -33.1938 C   0  0  0  0  0  0  0  0  0  0  0  0
  -19.7813   16.5364  -33.1745 C   0  0  0  0  0  0  0  0  0  0  0  0
  -18.4789   16.9735  -33.2249 C   0  0  0  0  0  0  0  0  0  0  0  0
  -17.4588   16.2705  -32.4497 C   0  0  0  0  0  0  0  0  0  0  0  0
  -16.0794   16.6496  -32.6493 C   0  0  0  0  0  0  0  0  0  0  0  0
  -15.3696   16.2235  -33.7431 C   0  0  0  0  0  0  0  0  0  0  0  0
  -14.0540   16.5694  -33.9734 C   0  0  0  0  0  0  0  0  0  0  0  0
  -13.4247   17.3822  -33.0591 C   0  0  0  0  0  0  0  0  0  0  0  0
  -12.1373   17.7583  -33.2260 F   0  0  0  0  0  0  0  0  0  0  0  0
  -14.1232   17.8189  -31.9546 C   0  0  0  0  0  0  0  0  0  0  0  0
  -15.4398   17.4596  -31.7444 C   0  0  0  0  0  0  0  0  0  0  0  0
  -16.2195   18.0636  -30.2864 Cl  0  0  0  0  0  0  0  0  0  0  0  0
  -17.7335   14.7970  -32.4754 C   0  0  0  0  0  0  0  0  0  0  0  0
  -19.0818   14.6529  -31.7942 C   0  0  0  0  0  0  0  0  0  0  0  0
  -19.2733   13.9967  -30.7599 O   0  0  0  0  0  0  0  0  0  0  0  0
  -20.1584   15.3538  -32.4543 N   0  0  0  0  0  0  0  0  0  0  0  0
  1  2  1  0
  2  3  2  0
  3  4  1  0
  4  5  1  0
  5  6  2  0
  6  7  1  0
  7  8  2  0
  8  9  1  0
  9 10  1  0
 10 11  1  0
 11 12  2  0
 12 13  1  0
  4 14  1  0
 14 15  2  0
 15 16  1  0
 16 17  1  0
 17 18  2  0
 18 19  1  0
 19 20  2  0
 20 21  1  0
 20 22  1  0
 22 23  2  0
 23 24  1  0
 16 25  1  0
 25 26  1  0
 26 27  2  0
 26 28  1  0
 15  2  1  0
 23 17  1  0
 13  5  1  0
 28 14  1  0
 13  9  2  0
M  END
$$$$
