
     RDKit          3D

 18 19  0  0  0  0  0  0  0  0999 V2000
  -15.7105   16.5560  -30.8195 O   0  0  0  0  0  0  0  0  0  0  0  0
  -16.1000   17.1157  -31.8568 N   0  0  0  0  0  4  0  0  0  0  0  0
  -15.2851   17.9995  -32.4922 O   0  0  0  0  0  1  0  0  0  0  0  0
  -17.3935   16.8641  -32.4200 C   0  0  0  0  0  0  0  0  0  0  0  0
  -18.4557   16.6123  -31.5781 C   0  0  0  0  0  0  0  0  0  0  0  0
  -19.6998   16.3716  -32.1580 C   0  0  0  0  0  0  0  0  0  0  0  0
  -19.9130   16.3744  -33.5121 C   0  0  0  0  0  0  0  0  0  0  0  0
  -21.1459   16.1369  -34.0289 O   0  0  0  0  0  0  0  0  0  0  0  0
  -22.0066   15.0993  -33.8228 C   0  0  0  0  0  0  0  0  0  0  0  0
  -21.5852   13.7781  -34.0705 C   0  0  0  0  0  0  0  0  0  0  0  0
  -22.4037   12.6906  -33.8827 C   0  0  0  0  0  0  0  0  0  0  0  0
  -23.6977   12.8514  -33.4349 C   0  0  0  0  0  0  0  0  0  0  0  0
  -24.7323   11.4593  -33.1989 Cl  0  0  0  0  0  0  0  0  0  0  0  0
  -24.1222   14.1296  -33.1897 C   0  0  0  0  0  0  0  0  0  0  0  0
  -23.2931   15.2268  -33.3803 C   0  0  0  0  0  0  0  0  0  0  0  0
  -23.9832   16.7885  -33.0284 Cl  0  0  0  0  0  0  0  0  0  0  0  0
  -18.8061   16.6342  -34.3246 C   0  0  0  0  0  0  0  0  0  0  0  0
  -17.5646   16.8754  -33.7848 C   0  0  0  0  0  0  0  0  0  0  0  0
  1  2  2  0
  2  3  1  0
  2  4  1  0
  4  5  2  0
  5  6  1  0
  6  7  2  0
  7  8  1  0
  8  9  1  0
  9 10  2  0
 10 11  1  0
 11 12  2  0
 12 13  1  0
 12 14  1  0
 14 15  2  0
 15 16  1  0
  7 17  1  0
 17 18  2  0
 18  4  1  0
 15  9  1  0
M  CHG  2   2   1   3  -1
M  END
$$$$
