
     RDKit          3D

 32 35  0  0  0  0  0  0  0  0999 V2000
  -20.2560   37.2844  -18.1035 C   0  0  0  0  0  0  0  0  0  0  0  0
  -20.1178   36.7806  -19.4161 O   0  0  0  0  0  0  0  0  0  0  0  0
  -19.4819   37.5745  -20.3574 C   0  0  0  0  0  0  0  0  0  0  0  0
  -18.8532   38.7305  -19.9949 C   0  0  0  0  0  0  0  0  0  0  0  0
  -18.2146   39.5390  -20.9014 C   0  0  0  0  0  0  0  0  0  0  0  0
  -17.5543   40.7586  -20.5048 C   0  0  0  0  0  0  0  0  0  0  0  0
  -16.9245   40.8508  -19.3962 O   0  0  0  0  0  0  0  0  0  0  0  0
  -17.5335   41.9638  -21.2877 N   0  0  0  0  0  0  0  0  0  0  0  0
  -16.7536   43.0710  -20.8641 C   0  0  0  0  0  0  0  0  0  0  0  0
  -15.3605   42.8772  -20.6904 C   0  0  0  0  0  0  0  0  0  0  0  0
  -14.5166   43.8815  -20.3010 C   0  0  0  0  0  0  0  0  0  0  0  0
  -13.1670   43.6224  -20.1507 O   0  0  0  0  0  0  0  0  0  0  0  0
  -12.6718   43.2601  -18.8760 C   0  0  0  0  0  0  0  0  0  0  0  0
  -12.9448   44.2723  -17.9613 F   0  0  0  0  0  0  0  0  0  0  0  0
  -11.3182   42.9891  -18.9382 F   0  0  0  0  0  0  0  0  0  0  0  0
  -13.2871   42.1221  -18.3803 F   0  0  0  0  0  0  0  0  0  0  0  0
  -15.0802   45.1152  -20.0786 C   0  0  0  0  0  0  0  0  0  0  0  0
  -16.4304   45.3236  -20.2411 C   0  0  0  0  0  0  0  0  0  0  0  0
  -17.2997   44.2878  -20.6417 C   0  0  0  0  0  0  0  0  0  0  0  0
  -18.6857   44.5530  -20.7516 N   0  0  0  0  0  0  0  0  0  0  0  0
  -19.4065   45.5448  -21.2519 C   0  0  0  0  0  0  0  0  0  0  0  0
  -20.7456   45.2745  -21.1113 N   0  0  0  0  0  0  0  0  0  0  0  0
  -20.8388   44.0831  -20.5082 C   0  0  0  0  0  0  0  0  0  0  0  0
  -19.6079   43.6654  -20.3002 N   0  0  0  0  0  0  0  0  0  0  0  0
  -18.2297   39.1394  -22.2027 C   0  0  0  0  0  0  0  0  0  0  0  0
  -18.8561   37.9717  -22.6159 C   0  0  0  0  0  0  0  0  0  0  0  0
  -19.5018   37.1573  -21.6954 C   0  0  0  0  0  0  0  0  0  0  0  0
  -20.1350   36.0251  -21.9723 O   0  0  0  0  0  0  0  0  0  0  0  0
  -20.3607   35.0024  -22.7903 C   0  0  0  0  0  0  0  0  0  0  0  0
  -19.2131   34.1320  -23.1909 C   0  0  0  0  0  0  0  0  0  0  0  0
  -19.3273   32.8369  -23.8759 C   0  0  0  0  0  0  0  0  0  0  0  0
  -19.1397   32.8234  -22.4093 C   0  0  0  0  0  0  0  0  0  0  0  0
  1  2  1  0
  2  3  1  0
  3  4  2  0
  4  5  1  0
  5  6  1  0
  6  7  2  0
  6  8  1  0
  8  9  1  0
  9 10  2  0
 10 11  1  0
 11 12  1  0
 12 13  1  0
 13 14  1  0
 13 15  1  0
 13 16  1  0
 11 17  2  0
 17 18  1  0
 18 19  2  0
 19 20  1  0
 20 21  1  0
 21 22  2  0
 22 23  1  0
 23 24  2  0
  5 25  2  0
 25 26  1  0
 26 27  2  0
 27 28  1  0
 28 29  1  0
 29 30  1  0
 30 31  1  0
 31 32  1  0
 27  3  1  0
 32 30  1  0
 19  9  1  0
 24 20  1  0
M  END
$$$$
