
     RDKit          3D

 21 22  0  0  0  0  0  0  0  0999 V2000
  -22.1731   19.7604  -36.9297 O   0  0  0  0  0  0  0  0  0  0  0  0
  -21.3241   19.0136  -36.3821 C   0  0  0  0  0  0  0  0  0  0  0  0
  -20.5159   18.2515  -37.1806 O   0  0  0  0  0  0  0  0  0  0  0  0
  -21.2019   18.9599  -34.9197 C   0  0  0  0  0  0  0  0  0  0  0  0
  -20.1605   18.0625  -34.4948 N   0  0  0  0  0  0  0  0  0  0  0  0
  -19.1900   18.4850  -33.5620 C   0  0  0  0  0  0  0  0  0  0  0  0
  -19.0790   19.6856  -33.1826 O   0  0  0  0  0  0  0  0  0  0  0  0
  -18.2544   17.5026  -32.9916 C   0  0  0  0  0  0  0  0  0  0  0  0
  -17.2860   17.8713  -32.1267 N   0  0  0  0  0  0  0  0  0  0  0  0
  -16.4191   16.9933  -31.5924 C   0  0  0  0  0  0  0  0  0  0  0  0
  -16.5028   15.6596  -31.9254 C   0  0  0  0  0  0  0  0  0  0  0  0
  -15.5410   14.7302  -31.3231 C   0  0  0  0  0  0  0  0  0  0  0  0
  -15.8624   13.9830  -30.2061 C   0  0  0  0  0  0  0  0  0  0  0  0
  -14.9391   13.1108  -29.6504 C   0  0  0  0  0  0  0  0  0  0  0  0
  -13.6735   12.9463  -30.1746 C   0  0  0  0  0  0  0  0  0  0  0  0
  -13.3540   13.6977  -31.2956 C   0  0  0  0  0  0  0  0  0  0  0  0
  -11.7355   13.4976  -31.9786 Cl  0  0  0  0  0  0  0  0  0  0  0  0
  -14.2748   14.5654  -31.8472 C   0  0  0  0  0  0  0  0  0  0  0  0
  -17.4742   15.2231  -32.8060 C   0  0  0  0  0  0  0  0  0  0  0  0
  -18.3359   16.1675  -33.3231 C   0  0  0  0  0  0  0  0  0  0  0  0
  -19.3364   15.7616  -34.2215 O   0  0  0  0  0  0  0  0  0  0  0  0
  1  2  2  0
  2  3  1  0
  2  4  1  0
  4  5  1  0
  5  6  1  0
  6  7  2  0
  6  8  1  0
  8  9  2  0
  9 10  1  0
 10 11  2  0
 11 12  1  0
 12 13  2  0
 13 14  1  0
 14 15  2  0
 15 16  1  0
 16 17  1  0
 16 18  2  0
 11 19  1  0
 19 20  2  0
 20 21  1  0
 20  8  1  0
 18 12  1  0
M  END
$$$$
