
     RDKit          3D

 23 24  0  0  0  0  0  0  0  0999 V2000
  -21.0632   38.1596  -22.7789 C   0  0  0  0  0  0  0  0  0  0  0  0
  -19.7070   38.5320  -22.5180 N   0  0  0  0  0  0  0  0  0  0  0  0
  -18.6795   37.6859  -22.4219 C   0  0  0  0  0  0  0  0  0  0  0  0
  -18.6626   36.2398  -22.5544 C   0  0  0  0  0  0  0  0  0  0  0  0
  -17.4271   35.5460  -22.0689 C   0  0  0  0  0  0  0  0  0  0  0  0
  -17.6936   34.0995  -21.6948 C   0  0  0  0  0  0  0  0  0  0  0  0
  -18.9546   34.0911  -20.8918 C   0  0  0  0  0  0  0  0  0  0  0  0
  -19.9921   33.4752  -21.2920 O   0  0  0  0  0  0  0  0  0  0  0  0
  -19.0656   34.7525  -19.6709 O   0  0  0  0  0  0  0  0  0  0  0  0
  -17.5678   38.4369  -22.1764 N   0  0  0  0  0  0  0  0  0  0  0  0
  -17.9443   39.7168  -22.1292 C   0  0  0  0  0  0  0  0  0  0  0  0
  -17.1896   40.8864  -21.9166 C   0  0  0  0  0  0  0  0  0  0  0  0
  -17.7132   42.1420  -21.9062 C   0  0  0  0  0  0  0  0  0  0  0  0
  -17.0445   43.3743  -21.6458 N   0  0  0  0  0  0  0  0  0  0  0  0
  -17.6081   44.6612  -21.5519 C   0  0  0  0  0  0  0  0  0  0  0  0
  -19.0760   44.8602  -21.4326 C   0  0  0  0  0  0  0  0  0  0  0  0
  -19.4460   46.6086  -21.3463 Cl  0  0  0  0  0  0  0  0  0  0  0  0
  -15.5936   43.3025  -21.3513 C   0  0  0  0  0  0  0  0  0  0  0  0
  -14.8262   44.3289  -22.0932 C   0  0  0  0  0  0  0  0  0  0  0  0
  -13.0884   44.3838  -21.9046 Cl  0  0  0  0  0  0  0  0  0  0  0  0
  -19.1095   42.1847  -22.1302 C   0  0  0  0  0  0  0  0  0  0  0  0
  -19.8573   41.0495  -22.3387 C   0  0  0  0  0  0  0  0  0  0  0  0
  -19.2811   39.8105  -22.3402 C   0  0  0  0  0  0  0  0  0  0  0  0
  1  2  1  0
  2  3  1  0
  3  4  1  0
  4  5  1  0
  5  6  1  0
  6  7  1  0
  7  8  2  0
  7  9  1  0
  3 10  2  0
 10 11  1  0
 11 12  2  0
 12 13  1  0
 13 14  1  0
 14 15  1  0
 15 16  1  0
 16 17  1  0
 14 18  1  0
 18 19  1  0
 19 20  1  0
 13 21  2  0
 21 22  1  0
 22 23  2  0
 23  2  1  0
 23 11  1  0
M  END
$$$$
