
     RDKit          3D

 38 42  0  0  0  0  0  0  0  0999 V2000
  -21.2001   14.2240  -20.8387 C   0  0  0  0  0  0  0  0  0  0  0  0
  -21.9180   15.4400  -20.9155 O   0  0  0  0  0  0  0  0  0  0  0  0
  -23.0504   15.5333  -21.7074 C   0  0  0  0  0  0  0  0  0  0  0  0
  -24.0597   16.3801  -21.4505 N   0  0  0  0  0  0  0  0  0  0  0  0
  -25.1544   16.4601  -22.2288 C   0  0  0  0  0  0  0  0  0  0  0  0
  -25.2713   15.6687  -23.3234 C   0  0  0  0  0  0  0  0  0  0  0  0
  -26.3634   15.6786  -24.2955 C   0  0  0  0  0  0  0  0  0  0  0  0
  -27.4818   14.8788  -24.1503 N   0  0  0  0  0  0  0  0  0  0  0  0
  -28.2890   15.0469  -25.1929 C   0  0  0  0  0  0  0  0  0  0  0  0
  -27.7065   15.9412  -26.0038 C   0  0  0  0  0  0  0  0  0  0  0  0
  -26.5043   16.3202  -25.4238 N   0  0  0  0  0  0  0  0  0  0  0  0
  -25.6414   17.2455  -26.1153 C   0  0  0  0  0  0  0  0  0  0  0  0
  -25.0531   16.6507  -27.3588 C   0  0  0  0  0  0  0  0  0  0  0  0
  -26.2372   18.6255  -26.2956 C   0  0  0  0  0  0  0  0  0  0  0  0
  -28.5689   16.1827  -27.1790 C   0  0  2  0  0  0  0  0  0  0  0  0
  -28.9931   17.6138  -27.2279 C   0  0  0  0  0  0  0  0  0  0  0  0
  -28.6994   18.3944  -28.3216 C   0  0  0  0  0  0  0  0  0  0  0  0
  -29.0911   19.7191  -28.3690 C   0  0  0  0  0  0  0  0  0  0  0  0
  -29.7792   20.2893  -27.3335 C   0  0  0  0  0  0  0  0  0  0  0  0
  -30.2587   21.9592  -27.4223 Cl  0  0  0  0  0  0  0  0  0  0  0  0
  -30.0629   19.4817  -26.2431 C   0  0  0  0  0  0  0  0  0  0  0  0
  -29.6853   18.1611  -26.1698 C   0  0  0  0  0  0  0  0  0  0  0  0
  -29.7210   15.3099  -27.0439 N   0  0  0  0  0  0  0  0  0  0  0  0
  -30.7642   15.2441  -27.9972 C   0  0  0  0  0  0  0  0  0  0  0  0
  -31.6381   16.3337  -28.1329 C   0  0  0  0  0  0  0  0  0  0  0  0
  -32.6882   16.3404  -29.0143 C   0  0  0  0  0  0  0  0  0  0  0  0
  -33.7523   17.7227  -29.1499 Cl  0  0  0  0  0  0  0  0  0  0  0  0
  -32.8575   15.2078  -29.7819 C   0  0  0  0  0  0  0  0  0  0  0  0
  -32.0207   14.1713  -29.6484 N   0  0  0  0  0  0  0  0  0  0  0  0
  -32.2294   12.9872  -30.4780 C   0  0  0  0  0  0  0  0  0  0  0  0
  -30.9732   14.1447  -28.7797 C   0  0  0  0  0  0  0  0  0  0  0  0
  -30.2700   13.1053  -28.7579 O   0  0  0  0  0  0  0  0  0  0  0  0
  -29.5529   14.6362  -25.8201 C   0  0  0  0  0  0  0  0  0  0  0  0
  -30.3164   13.7885  -25.2633 O   0  0  0  0  0  0  0  0  0  0  0  0
  -24.2107   14.7796  -23.5910 C   0  0  0  0  0  0  0  0  0  0  0  0
  -24.3029   13.9377  -24.7271 O   0  0  0  0  0  0  0  0  0  0  0  0
  -23.3080   12.9442  -24.8817 C   0  0  0  0  0  0  0  0  0  0  0  0
  -23.1653   14.7488  -22.7888 N   0  0  0  0  0  0  0  0  0  0  0  0
  1  2  1  0
  2  3  1  0
  3  4  2  0
  4  5  1  0
  5  6  2  0
  6  7  1  0
  7  8  2  0
  8  9  1  0
  9 10  2  0
 10 11  1  0
 11 12  1  0
 12 13  1  0
 12 14  1  0
 10 15  1  0
 15 16  1  1
 16 17  2  0
 17 18  1  0
 18 19  2  0
 19 20  1  0
 19 21  1  0
 21 22  2  0
 15 23  1  0
 23 24  1  0
 24 25  2  0
 25 26  1  0
 26 27  1  0
 26 28  2  0
 28 29  1  0
 29 30  1  0
 29 31  1  0
 31 32  2  0
 23 33  1  0
 33 34  2  0
  6 35  1  0
 35 36  1  0
 36 37  1  0
 35 38  2  0
 38  3  1  0
 11  7  1  0
 22 16  1  0
 31 24  1  0
 33  9  1  0
M  END
$$$$
