
     RDKit          3D

 24 27  0  0  0  0  0  0  0  0999 V2000
  -19.0444   39.3193  -20.5270 O   0  0  0  0  0  0  0  0  0  0  0  0
  -18.6263   38.8369  -21.6404 C   0  0  0  0  0  0  0  0  0  0  0  0
  -19.1271   37.6686  -22.1776 N   0  0  0  0  0  0  0  0  0  0  0  0
  -18.6789   37.2400  -23.2784 C   0  0  0  0  0  0  0  0  0  0  0  0
  -19.0882   36.0768  -23.9385 N   0  0  0  0  0  0  0  0  0  0  0  0
  -20.0797   35.2073  -23.3697 C   0  0  0  0  0  0  0  0  0  0  0  0
  -19.5446   34.2124  -22.4472 C   0  0  0  0  0  0  0  0  0  0  0  0
  -18.8809   33.0379  -22.5925 C   0  0  0  0  0  0  0  0  0  0  0  0
  -18.5099   32.3332  -21.5322 C   0  0  0  0  0  0  0  0  0  0  0  0
  -18.8102   32.8123  -20.2752 C   0  0  0  0  0  0  0  0  0  0  0  0
  -19.6752   34.3668  -20.6536 S   0  0  0  0  0  0  0  0  0  0  0  0
  -17.4523   38.4079  -23.8318 S   0  0  0  0  0  0  0  0  0  0  0  0
  -17.5901   39.4899  -22.4193 C   0  0  0  0  0  0  0  0  0  0  0  0
  -16.8929   40.5555  -22.1998 C   0  0  0  0  0  0  0  0  0  0  0  0
  -17.4679   41.8490  -21.9584 C   0  0  0  0  0  0  0  0  0  0  0  0
  -16.6118   42.9359  -22.0456 C   0  0  0  0  0  0  0  0  0  0  0  0
  -17.0250   44.2299  -21.8150 C   0  0  0  0  0  0  0  0  0  0  0  0
  -18.3573   44.4708  -21.4784 C   0  0  0  0  0  0  0  0  0  0  0  0
  -18.7586   45.7325  -21.2571 N   0  0  0  0  0  0  0  0  0  0  0  0
  -20.0321   46.0152  -20.9338 C   0  0  0  0  0  0  0  0  0  0  0  0
  -20.9634   44.9868  -20.8214 C   0  0  0  0  0  0  0  0  0  0  0  0
  -20.5467   43.6963  -21.0496 C   0  0  0  0  0  0  0  0  0  0  0  0
  -19.2299   43.4196  -21.3838 C   0  0  0  0  0  0  0  0  0  0  0  0
  -18.7801   42.1186  -21.6247 C   0  0  0  0  0  0  0  0  0  0  0  0
  1  2  2  0
  2  3  1  0
  3  4  2  0
  4  5  1  0
  5  6  1  0
  6  7  1  0
  7  8  2  0
  8  9  1  0
  9 10  2  0
 10 11  1  0
  4 12  1  0
 12 13  1  0
 13 14  2  0
 14 15  1  0
 15 16  2  0
 16 17  1  0
 17 18  2  0
 18 19  1  0
 19 20  2  0
 20 21  1  0
 21 22  2  0
 22 23  1  0
 23 24  2  0
 13  2  1  0
 24 15  1  0
 11  7  1  0
 23 18  1  0
M  END
$$$$
