
     RDKit          3D

 35 36  0  0  0  0  0  0  0  0999 V2000
  -30.5983   16.1209  -26.3550 Cl  0  0  0  0  0  0  0  0  0  0  0  0
  -30.5974   16.1213  -26.3554 Cl  0  0  0  0  0  0  0  0  0  0  0  0
  -30.5967   16.1216  -26.3558 Cl  0  0  0  0  0  0  0  0  0  0  0  0
  -30.6010   16.1199  -26.3537 Cl  0  0  0  0  0  0  0  0  0  0  0  0
  -24.9179   16.9743  -30.7966 C   0  0  0  0  0  0  0  0  0  0  0  0
  -26.2935   17.0370  -30.7142 C   0  0  0  0  0  0  0  0  0  0  0  0
  -26.8749   17.5716  -29.5947 C   0  0  0  0  0  0  0  0  0  0  0  0
  -26.0557   18.0387  -28.5668 C   0  0  0  0  0  0  0  0  0  0  0  0
  -26.6704   18.5794  -27.4363 C   0  0  0  0  0  0  0  0  0  0  0  0
  -28.1158   18.6519  -27.3360 C   0  0  0  0  0  0  0  0  0  0  0  0
  -28.9185   19.6926  -27.7487 C   0  0  0  0  0  0  0  0  0  0  0  0
  -30.2004   19.3495  -27.4689 N   0  0  0  0  0  0  0  0  0  0  0  0
  -30.2475   18.1473  -26.9017 N   0  0  0  0  0  0  0  0  0  0  0  0
  -31.2961   17.4277  -26.4671 C   0  0  0  0  0  0  0  0  0  0  0  0
  -31.0964   16.1956  -25.9086 C   0  0  0  0  0  0  0  0  0  0  0  0
  -32.2380   15.4420  -25.4493 C   0  0  0  0  0  0  0  0  0  0  0  0
  -33.4353   15.5902  -26.1157 C   0  0  0  0  0  0  0  0  0  0  0  0
  -34.5563   14.8743  -25.6937 C   0  0  0  0  0  0  0  0  0  0  0  0
  -34.4893   14.0136  -24.6131 C   0  0  0  0  0  0  0  0  0  0  0  0
  -35.6687   13.3179  -24.2319 N   0  0  0  0  0  0  0  0  0  0  0  0
  -35.7426   12.3170  -23.1981 C   0  0  0  0  0  0  0  0  0  0  0  0
  -36.6682   12.8854  -22.1224 C   0  0  0  0  0  0  0  0  0  0  0  0
  -37.9567   13.1793  -22.6983 N   0  0  0  0  0  0  0  0  0  0  0  0
  -38.0314   12.9268  -24.1133 C   0  0  0  0  0  0  0  0  0  0  0  0
  -36.9478   13.6031  -24.9084 C   0  0  0  0  0  0  0  0  0  0  0  0
  -33.2898   13.8676  -23.9484 C   0  0  0  0  0  0  0  0  0  0  0  0
  -32.1663   14.5858  -24.3723 C   0  0  0  0  0  0  0  0  0  0  0  0
  -29.7967   15.7285  -25.8108 C   0  0  0  0  0  0  0  0  0  0  0  0
  -28.7793   16.4835  -26.2590 N   0  0  0  0  0  0  0  0  0  0  0  0
  -28.9603   17.7036  -26.8136 C   0  0  0  0  0  0  0  0  0  0  0  0
  -25.8374   19.0418  -26.4184 C   0  0  0  0  0  0  0  0  0  0  0  0
  -24.4806   18.9453  -26.5735 C   0  0  0  0  0  0  0  0  0  0  0  0
  -23.8990   18.4210  -27.6703 N   0  0  0  0  0  0  0  0  0  0  0  0
  -24.6801   17.9681  -28.6659 C   0  0  0  0  0  0  0  0  0  0  0  0
  -24.0906   17.4288  -29.7951 C   0  0  0  0  0  0  0  0  0  0  0  0
  5  6  2  0
  6  7  1  0
  7  8  2  0
  8  9  1  0
  9 10  1  0
 10 11  1  0
 11 12  2  0
 12 13  1  0
 13 14  1  0
 14 15  2  0
 15 16  1  0
 16 17  2  0
 17 18  1  0
 18 19  2  0
 19 20  1  0
 20 21  1  0
 21 22  1  0
 22 23  1  0
 23 24  1  0
 24 25  1  0
 19 26  1  0
 26 27  2  0
 15 28  1  0
 28 29  2  0
 29 30  1  0
  9 31  2  0
 31 32  1  0
 32 33  2  0
 33 34  1  0
 34 35  2  0
 35  5  1  0
 34  8  1  0
 30 10  2  0
 30 13  1  0
 27 16  1  0
 25 20  1  0
M  END
$$$$
