
     RDKit          3D

 19 19  0  0  0  0  0  0  0  0999 V2000
  -20.9512   41.9804  -26.7803 C   0  0  0  0  0  0  0  0  0  0  0  0
  -21.1625   40.8099  -27.7160 C   0  0  0  0  0  0  0  0  0  0  0  0
  -21.8313   41.2731  -28.9784 C   0  0  0  0  0  0  0  0  0  0  0  0
  -21.8512   39.7875  -27.0192 N   0  0  0  0  0  0  0  0  0  0  0  0
  -21.7002   38.4588  -27.4999 C   0  0  0  0  0  0  0  0  0  0  0  0
  -20.3468   37.9021  -27.0663 C   0  0  0  0  0  0  0  0  0  0  0  0
  -20.2997   36.5297  -27.0781 O   0  0  0  0  0  0  0  0  0  0  0  0
  -20.0091   38.4781  -25.7275 C   0  0  0  0  0  0  0  0  0  0  0  0
  -18.6501   38.3841  -25.3923 O   0  0  0  0  0  0  0  0  0  0  0  0
  -18.2455   38.6243  -24.1029 C   0  0  0  0  0  0  0  0  0  0  0  0
  -18.5990   39.7875  -23.4777 C   0  0  0  0  0  0  0  0  0  0  0  0
  -18.2084   40.0713  -22.1636 C   0  0  0  0  0  0  0  0  0  0  0  0
  -17.4463   39.1534  -21.4803 C   0  0  0  0  0  0  0  0  0  0  0  0
  -17.0231   39.4316  -20.0910 C   0  0  0  0  0  0  0  0  0  0  0  0
  -17.9522   38.8310  -19.1014 C   0  0  0  0  0  0  0  0  0  0  0  0
  -18.5767   39.6888  -18.1626 N   0  0  0  0  0  0  0  0  0  0  0  0
  -18.1722   37.5983  -19.1035 O   0  0  0  0  0  0  0  0  0  0  0  0
  -17.0994   37.9928  -22.1195 C   0  0  0  0  0  0  0  0  0  0  0  0
  -17.4853   37.7002  -23.4332 C   0  0  0  0  0  0  0  0  0  0  0  0
  1  2  1  0
  2  3  1  0
  2  4  1  0
  4  5  1  0
  5  6  1  0
  6  7  1  0
  6  8  1  0
  8  9  1  0
  9 10  1  0
 10 11  2  0
 11 12  1  0
 12 13  2  0
 13 14  1  0
 14 15  1  0
 15 16  1  0
 15 17  2  0
 13 18  1  0
 18 19  2  0
 19 10  1  0
M  END
$$$$
