
     RDKit          3D

 21 21  0  0  0  0  0  0  0  0999 V2000
  -20.9803   21.6347  -28.7549 C   0  0  0  0  0  0  0  0  0  0  0  0
  -22.2205   21.4663  -29.3664 O   0  0  0  0  0  0  0  0  0  0  0  0
  -22.5106   20.5914  -30.3955 C   0  0  0  0  0  0  0  0  0  0  0  0
  -23.7970   20.5501  -30.8873 C   0  0  0  0  0  0  0  0  0  0  0  0
  -24.1432   19.6954  -31.9141 C   0  0  0  0  0  0  0  0  0  0  0  0
  -23.1751   18.8625  -32.4600 C   0  0  0  0  0  0  0  0  0  0  0  0
  -23.5492   17.9406  -33.5711 C   0  0  0  0  0  0  0  0  0  0  0  0
  -22.6307   18.2839  -34.7142 C   0  0  0  0  0  0  0  0  0  0  0  0
  -22.8235   17.5227  -35.9078 N   0  0  0  0  0  0  0  0  0  0  0  0
  -21.8089   17.9211  -36.8821 C   0  0  0  0  0  0  0  0  0  0  0  0
  -24.1096   17.8490  -36.5373 C   0  0  0  0  0  0  0  0  0  0  0  0
  -23.4216   16.4982  -33.1346 C   0  0  0  0  0  0  0  0  0  0  0  0
  -22.1250   16.1533  -32.7550 O   0  0  0  0  0  0  0  0  0  0  0  0
  -23.8438   15.5373  -34.2137 C   0  0  0  0  0  0  0  0  0  0  0  0
  -24.0590   14.1947  -33.4884 C   0  0  0  0  0  0  0  0  0  0  0  0
  -25.4815   14.2462  -32.9506 C   0  0  0  0  0  0  0  0  0  0  0  0
  -25.6419   15.6158  -32.3283 C   0  0  0  0  0  0  0  0  0  0  0  0
  -24.3368   16.2356  -31.9489 C   0  0  0  0  0  0  0  0  0  0  0  0
  -21.9033   18.8852  -31.9928 C   0  0  0  0  0  0  0  0  0  0  0  0
  -21.5754   19.7524  -30.9595 C   0  0  0  0  0  0  0  0  0  0  0  0
  -23.0499   18.3337  -32.8104 Cl  0  0  0  0  0  0  0  0  0  0  0  0
  1  2  1  0
  2  3  1  0
  3  4  2  0
  4  5  1  0
  5  6  2  0
  6  7  1  0
  7  8  1  0
  8  9  1  0
  9 10  1  0
  9 11  1  0
  7 12  1  0
 12 13  1  0
 12 14  1  0
 14 15  1  0
 15 16  1  0
 16 17  1  0
 17 18  1  0
  6 19  1  0
 19 20  2  0
 20  3  1  0
 18 12  1  0
M  END
$$$$
