
     RDKit          3D

 23 23  0  0  0  0  0  0  0  0999 V2000
  -18.5669   37.6470  -25.8561 C   0  0  0  0  0  0  0  0  0  0  0  0
  -19.2875   36.9534  -24.7008 C   0  0  0  0  0  0  0  0  0  0  0  0
  -20.3690   36.0644  -25.2702 C   0  0  0  0  0  0  0  0  0  0  0  0
  -18.2891   36.1306  -23.9215 C   0  0  0  0  0  0  0  0  0  0  0  0
  -18.5621   36.1790  -22.4339 C   0  0  2  0  0  0  0  0  0  0  0  0
  -19.2641   37.3973  -22.0815 N   0  0  0  0  0  0  0  0  0  0  0  0
  -18.6839   38.6858  -22.1839 C   0  0  0  0  0  0  0  0  0  0  0  0
  -17.4758   38.8037  -22.5053 O   0  0  0  0  0  0  0  0  0  0  0  0
  -19.4791   39.9259  -21.9167 C   0  0  0  0  0  0  0  0  0  0  0  0
  -18.6693   40.9769  -21.3822 N   0  0  0  0  0  0  0  0  0  0  0  0
  -18.5037   42.2028  -22.0832 C   0  0  0  0  0  0  0  0  0  0  0  0
  -19.0112   42.3463  -23.2251 O   0  0  0  0  0  0  0  0  0  0  0  0
  -17.7433   43.2478  -21.4352 C   0  0  0  0  0  0  0  0  0  0  0  0
  -18.2322   44.5296  -21.4239 C   0  0  0  0  0  0  0  0  0  0  0  0
  -17.4955   45.5256  -20.7997 C   0  0  0  0  0  0  0  0  0  0  0  0
  -18.1588   47.1467  -20.8102 Cl  0  0  0  0  0  0  0  0  0  0  0  0
  -16.2968   45.2177  -20.2066 C   0  0  0  0  0  0  0  0  0  0  0  0
  -15.7867   43.9413  -20.2051 C   0  0  0  0  0  0  0  0  0  0  0  0
  -16.5436   42.9530  -20.8387 C   0  0  0  0  0  0  0  0  0  0  0  0
  -15.9402   41.3125  -20.8655 Cl  0  0  0  0  0  0  0  0  0  0  0  0
  -17.2114   36.1425  -21.6042 B   0  0  0  0  0  0  0  0  0  0  0  0
  -15.9963   36.5979  -22.2730 O   0  0  0  0  0  0  0  0  0  0  0  0
  -17.2738   36.3005  -20.1533 O   0  0  0  0  0  0  0  0  0  0  0  0
  1  2  1  0
  2  3  1  0
  2  4  1  0
  5  4  1  6
  5  6  1  0
  6  7  1  0
  7  8  2  0
  7  9  1  0
  9 10  1  0
 10 11  1  0
 11 12  2  0
 11 13  1  0
 13 14  2  0
 14 15  1  0
 15 16  1  0
 15 17  2  0
 17 18  1  0
 18 19  2  0
 19 20  1  0
  5 21  1  0
 21 22  1  0
 21 23  1  0
 19 13  1  0
M  END
$$$$
