
     RDKit          3D

 25 27  0  0  0  0  0  0  0  0999 V2000
  -17.8566   35.5186  -21.8361 N   0  0  0  0  0  0  0  0  0  0  0  0
  -17.7319   36.9701  -21.8201 C   0  0  0  0  0  0  0  0  0  0  0  0
  -16.8912   37.4982  -21.0669 O   0  0  0  0  0  0  0  0  0  0  0  0
  -18.5631   37.7305  -22.6543 N   0  0  0  0  0  0  0  0  0  0  0  0
  -18.5526   39.1927  -22.7472 C   0  0  0  0  0  0  0  0  0  0  0  0
  -17.7016   39.9626  -22.0590 C   0  0  0  0  0  0  0  0  0  0  0  0
  -17.7790   41.3168  -22.2210 C   0  0  0  0  0  0  0  0  0  0  0  0
  -16.9881   42.3838  -21.6060 C   0  0  0  0  0  0  0  0  0  0  0  0
  -16.2476   42.1813  -20.4816 C   0  0  0  0  0  0  0  0  0  0  0  0
  -15.5137   43.2233  -19.9346 C   0  0  0  0  0  0  0  0  0  0  0  0
  -15.4931   44.4907  -20.4849 C   0  0  0  0  0  0  0  0  0  0  0  0
  -16.2466   44.6838  -21.6230 C   0  0  0  0  0  0  0  0  0  0  0  0
  -16.2419   45.9244  -22.1832 F   0  0  0  0  0  0  0  0  0  0  0  0
  -16.9754   43.6585  -22.1704 C   0  0  0  0  0  0  0  0  0  0  0  0
  -19.0973   41.5563  -23.3871 S   0  0  0  0  0  0  0  0  0  0  0  0
  -19.4626   39.7705  -23.5809 C   0  0  0  0  0  0  0  0  0  0  0  0
  -20.4963   39.2927  -24.4489 C   0  0  0  0  0  0  0  0  0  0  0  0
  -21.0817   38.2234  -24.2538 O   0  0  0  0  0  0  0  0  0  0  0  0
  -20.8777   40.0599  -25.5800 N   0  0  0  0  0  0  0  0  0  0  0  0
  -21.7980   39.5090  -26.5556 C   0  0  1  0  0  0  0  0  0  0  0  0
  -22.3434   40.6158  -27.4172 C   0  0  0  0  0  0  0  0  0  0  0  0
  -23.3970   40.0769  -28.3380 C   0  0  0  0  0  0  0  0  0  0  0  0
  -23.0901   38.5954  -28.5751 C   0  0  0  0  0  0  0  0  0  0  0  0
  -21.6577   38.3911  -28.6841 N   0  0  0  0  0  0  0  0  0  0  0  0
  -20.9767   38.5753  -27.4383 C   0  0  0  0  0  0  0  0  0  0  0  0
  1  2  1  0
  2  3  2  0
  2  4  1  0
  4  5  1  0
  5  6  1  0
  6  7  2  0
  7  8  1  0
  8  9  2  0
  9 10  1  0
 10 11  2  0
 11 12  1  0
 12 13  1  0
 12 14  2  0
  7 15  1  0
 15 16  1  0
 16 17  1  0
 17 18  2  0
 17 19  1  0
 20 19  1  1
 20 21  1  0
 21 22  1  0
 22 23  1  0
 23 24  1  0
 24 25  1  0
 16  5  2  0
 25 20  1  0
 14  8  1  0
M  END
$$$$
