
     RDKit          3D

 36 38  0  0  0  0  0  0  0  0999 V2000
  -28.0002   18.6299  -26.3984 C   0  0  0  0  0  0  0  0  0  0  0  0
  -27.0334   19.4215  -26.9488 C   0  0  0  0  0  0  0  0  0  0  0  0
  -26.4796   19.1158  -28.2003 C   0  0  0  0  0  0  0  0  0  0  0  0
  -25.4225   19.9729  -28.7633 C   0  0  0  0  0  0  0  0  0  0  0  0
  -25.8431   20.9009  -29.7703 N   0  0  0  0  0  0  0  0  0  0  0  0
  -26.8867   21.7450  -29.1887 C   0  0  0  0  0  0  0  0  0  0  0  0
  -28.1085   21.7987  -30.0648 C   0  0  0  0  0  0  0  0  0  0  0  0
  -28.4466   23.2267  -30.3646 C   0  0  0  0  0  0  0  0  0  0  0  0
  -29.0056   23.4151  -31.6895 N   0  0  0  0  0  0  0  0  0  0  0  0
  -27.9849   23.3764  -32.7215 C   0  0  0  0  0  0  0  0  0  0  0  0
  -27.9523   24.6435  -33.5333 C   0  0  0  0  0  0  0  0  0  0  0  0
  -26.7139   25.3614  -33.4291 N   0  0  0  0  0  0  0  0  0  0  0  0
  -25.6198   24.7450  -34.1398 C   0  0  0  0  0  0  0  0  0  0  0  0
  -24.5957   24.2962  -33.1459 C   0  0  0  0  0  0  0  0  0  0  0  0
  -24.2396   22.8240  -33.3371 C   0  0  0  0  0  0  0  0  0  0  0  0
  -23.5216   22.4211  -32.1569 N   0  0  0  0  0  0  0  0  0  0  0  0
  -24.1610   21.2692  -31.5373 C   0  0  0  0  0  0  0  0  0  0  0  0
  -24.7368   21.7067  -30.2065 C   0  0  0  0  0  0  0  0  0  0  0  0
  -26.9487   17.9937  -28.8416 C   0  0  0  0  0  0  0  0  0  0  0  0
  -27.9373   17.2090  -28.2488 C   0  0  0  0  0  0  0  0  0  0  0  0
  -28.4893   17.4975  -27.0222 C   0  0  0  0  0  0  0  0  0  0  0  0
  -29.5228   16.7077  -26.3653 C   0  0  0  0  0  0  0  0  0  0  0  0
  -29.0887   15.4055  -25.8940 N   0  0  0  0  0  0  0  0  0  0  0  0
  -29.6729   15.1857  -24.6092 C   0  0  0  0  0  0  0  0  0  0  0  0
  -29.2725   13.8703  -23.9834 C   0  0  0  0  0  0  0  0  0  0  0  0
  -27.9451   13.9474  -23.2689 C   0  0  0  0  0  0  0  0  0  0  0  0
  -27.6040   12.5856  -22.8285 N   0  0  0  0  0  0  0  0  0  0  0  0
  -27.6432   11.7509  -23.9605 C   0  0  0  0  0  0  0  0  0  0  0  0
  -26.7956   10.5121  -23.9395 C   0  0  0  0  0  0  0  0  0  0  0  0
  -27.1847    9.8149  -25.1827 N   0  0  0  0  0  0  0  0  0  0  0  0
  -26.3193   10.0741  -26.2709 C   0  0  0  0  0  0  0  0  0  0  0  0
  -26.6830   11.1162  -27.2387 C   0  0  0  0  0  0  0  0  0  0  0  0
  -28.1253   11.3815  -27.4669 C   0  0  0  0  0  0  0  0  0  0  0  0
  -28.3557   12.5946  -28.1764 N   0  0  0  0  0  0  0  0  0  0  0  0
  -28.1162   13.8095  -27.4855 C   0  0  0  0  0  0  0  0  0  0  0  0
  -29.3735   14.4349  -26.8905 C   0  0  0  0  0  0  0  0  0  0  0  0
  1  2  2  0
  2  3  1  0
  3  4  1  0
  4  5  1  0
  5  6  1  0
  6  7  1  0
  7  8  1  0
  8  9  1  0
  9 10  1  0
 10 11  1  0
 11 12  1  0
 12 13  1  0
 13 14  1  0
 14 15  1  0
 15 16  1  0
 16 17  1  0
 17 18  1  0
  3 19  2  0
 19 20  1  0
 20 21  2  0
 21 22  1  0
 22 23  1  0
 23 24  1  0
 24 25  1  0
 25 26  1  0
 26 27  1  0
 27 28  1  0
 28 29  1  0
 29 30  1  0
 30 31  1  0
 31 32  1  0
 32 33  1  0
 33 34  1  0
 34 35  1  0
 35 36  1  0
 21  1  1  0
 36 23  1  0
 18  5  1  0
M  END
$$$$
