
     RDKit          3D

 19 19  0  0  0  0  0  0  0  0999 V2000
  -38.4392   13.5769  -23.1866 C   0  0  0  0  0  0  0  0  0  0  0  0
  -37.1095   14.3040  -22.9901 C   0  0  0  0  0  0  0  0  0  0  0  0
  -36.5758   14.6689  -24.3549 C   0  0  0  0  0  0  0  0  0  0  0  0
  -35.4928   15.6983  -24.1789 C   0  0  0  0  0  0  0  0  0  0  0  0
  -34.9496   16.1086  -25.4452 N   0  0  0  0  0  0  0  0  0  0  0  0
  -33.5418   16.3080  -25.5706 C   0  0  0  0  0  0  0  0  0  0  0  0
  -32.8770   17.2151  -24.7736 C   0  0  0  0  0  0  0  0  0  0  0  0
  -31.5178   17.4196  -24.8821 C   0  0  0  0  0  0  0  0  0  0  0  0
  -30.7477   16.7297  -25.7924 C   0  0  0  0  0  0  0  0  0  0  0  0
  -29.3144   16.9559  -25.8959 C   0  0  0  0  0  0  0  0  0  0  0  0
  -28.9044   17.6951  -26.8193 O   0  0  0  0  0  0  0  0  0  0  0  0
  -28.3848   16.4048  -25.0384 O   0  0  0  0  0  0  0  0  0  0  0  0
  -27.4811   15.3916  -25.3213 C   0  0  0  0  0  0  0  0  0  0  0  0
  -26.1070   15.9240  -25.5680 C   0  0  0  0  0  0  0  0  0  0  0  0
  -25.1697   14.8124  -25.4055 N   0  0  0  0  0  0  0  0  0  0  0  0
  -24.7289   14.3312  -26.7000 C   0  0  0  0  0  0  0  0  0  0  0  0
  -24.0040   15.3218  -24.7121 C   0  0  0  0  0  0  0  0  0  0  0  0
  -31.4179   15.8159  -26.5953 C   0  0  0  0  0  0  0  0  0  0  0  0
  -32.7791   15.6123  -26.4852 C   0  0  0  0  0  0  0  0  0  0  0  0
  1  2  1  0
  2  3  1  0
  3  4  1  0
  4  5  1  0
  5  6  1  0
  6  7  2  0
  7  8  1  0
  8  9  2  0
  9 10  1  0
 10 11  2  0
 10 12  1  0
 12 13  1  0
 13 14  1  0
 14 15  1  0
 15 16  1  0
 15 17  1  0
  9 18  1  0
 18 19  2  0
 19  6  1  0
M  END
$$$$
