
     RDKit          3D

 29 32  0  0  0  0  0  0  0  0999 V2000
  -11.0192   -4.5003  -32.8537 C   0  0  0  0  0  0  0  0  0  0  0  0
  -12.2341   -4.1296  -33.6193 C   0  0  0  0  0  0  0  0  0  0  0  0
  -13.1828   -5.0785  -33.9687 C   0  0  0  0  0  0  0  0  0  0  0  0
  -14.2701   -4.7250  -34.6579 N   0  0  0  0  0  0  0  0  0  0  0  0
  -14.5461   -3.4994  -35.0602 C   0  0  0  0  0  0  0  0  0  0  0  0
  -15.7083   -3.0695  -35.8071 C   0  0  0  0  0  0  0  0  0  0  0  0
  -15.8752   -3.5286  -37.1120 C   0  0  0  0  0  0  0  0  0  0  0  0
  -16.9581   -3.1434  -37.8817 C   0  0  0  0  0  0  0  0  0  0  0  0
  -17.9012   -2.2907  -37.3687 C   0  0  0  0  0  0  0  0  0  0  0  0
  -17.7503   -1.8282  -36.0791 C   0  0  0  0  0  0  0  0  0  0  0  0
  -16.6393   -2.2315  -35.3065 C   0  0  0  0  0  0  0  0  0  0  0  0
  -16.5720   -1.7157  -33.9421 C   0  0  0  0  0  0  0  0  0  0  0  0
  -16.1356   -0.2662  -33.9885 C   0  0  0  0  0  0  0  0  0  0  0  0
  -17.9731   -1.6732  -33.3001 C   0  0  0  0  0  0  0  0  0  0  0  0
  -13.6025   -2.5649  -34.7108 N   0  0  0  0  0  0  0  0  0  0  0  0
  -12.4911   -2.8408  -34.0236 C   0  0  0  0  0  0  0  0  0  0  0  0
  -11.5641   -1.7908  -33.7077 N   0  0  0  0  0  0  0  0  0  0  0  0
  -11.7670   -0.4357  -34.1793 C   0  0  0  0  0  0  0  0  0  0  0  0
  -12.1539    0.4749  -33.0708 C   0  0  0  0  0  0  0  0  0  0  0  0
  -13.3590    0.3728  -32.4099 C   0  0  0  0  0  0  0  0  0  0  0  0
  -13.7235    1.2125  -31.3812 C   0  0  0  0  0  0  0  0  0  0  0  0
  -12.8744    2.2145  -30.9613 C   0  0  0  0  0  0  0  0  0  0  0  0
  -13.2331    3.0948  -29.8963 N   0  0  0  0  0  0  0  0  0  0  0  0
  -12.8314    4.3536  -29.6762 C   0  0  0  0  0  0  0  0  0  0  0  0
  -13.4355    4.8171  -28.5243 C   0  0  0  0  0  0  0  0  0  0  0  0
  -14.1936    3.8044  -28.0821 N   0  0  0  0  0  0  0  0  0  0  0  0
  -14.0582    2.7753  -28.9226 N   0  0  0  0  0  0  0  0  0  0  0  0
  -11.6609    2.3353  -31.6096 C   0  0  0  0  0  0  0  0  0  0  0  0
  -11.3104    1.4872  -32.6377 C   0  0  0  0  0  0  0  0  0  0  0  0
  1  2  1  0
  2  3  2  0
  3  4  1  0
  4  5  2  0
  5  6  1  0
  6  7  2  0
  7  8  1  0
  8  9  2  0
  9 10  1  0
 10 11  2  0
 11 12  1  0
 12 13  1  0
 12 14  1  0
  5 15  1  0
 15 16  2  0
 16 17  1  0
 17 18  1  0
 18 19  1  0
 19 20  2  0
 20 21  1  0
 21 22  2  0
 22 23  1  0
 23 24  1  0
 24 25  2  0
 25 26  1  0
 26 27  2  0
 22 28  1  0
 28 29  2  0
 16  2  1  0
 29 19  1  0
 11  6  1  0
 27 23  1  0
M  END
$$$$
