
     RDKit          3D

 20 22  0  0  0  0  0  0  0  0999 V2000
  -17.9944   38.2108  -25.2376 C   0  0  0  0  0  0  0  0  0  0  0  0
  -17.9394   38.8187  -23.9064 C   0  0  0  0  0  0  0  0  0  0  0  0
  -18.1974   40.1128  -23.6458 N   0  0  0  0  0  0  0  0  0  0  0  0
  -18.0631   40.3523  -22.3473 C   0  0  0  0  0  0  0  0  0  0  0  0
  -18.2174   41.4985  -21.6025 C   0  0  0  0  0  0  0  0  0  0  0  0
  -18.0051   41.4336  -20.2414 C   0  0  0  0  0  0  0  0  0  0  0  0
  -17.6494   40.2426  -19.6694 C   0  0  0  0  0  0  0  0  0  0  0  0
  -17.4963   39.1056  -20.4086 C   0  0  0  0  0  0  0  0  0  0  0  0
  -17.6999   39.1312  -21.7720 C   0  0  0  0  0  0  0  0  0  0  0  0
  -17.6253   38.1950  -22.7306 N   0  0  0  0  0  0  0  0  0  0  0  0
  -17.2241   36.5490  -22.5907 S   0  0  0  0  0  6  0  0  0  0  0  0
  -16.5374   36.1260  -23.8859 O   0  0  0  0  0  0  0  0  0  0  0  0
  -16.2235   36.2830  -21.5029 O   0  0  0  0  0  0  0  0  0  0  0  0
  -18.5986   35.4928  -22.3708 C   0  0  0  0  0  0  0  0  0  0  0  0
  -19.8582   35.7643  -22.8611 C   0  0  0  0  0  0  0  0  0  0  0  0
  -20.9286   34.9075  -22.6645 C   0  0  0  0  0  0  0  0  0  0  0  0
  -20.7726   33.7339  -21.9611 C   0  0  0  0  0  0  0  0  0  0  0  0
  -21.8108   32.8800  -21.7575 F   0  0  0  0  0  0  0  0  0  0  0  0
  -19.5281   33.4403  -21.4626 C   0  0  0  0  0  0  0  0  0  0  0  0
  -18.4726   34.2948  -21.6619 C   0  0  0  0  0  0  0  0  0  0  0  0
  1  2  1  0
  2  3  2  0
  3  4  1  0
  4  5  2  0
  5  6  1  0
  6  7  2  0
  7  8  1  0
  8  9  2  0
  9 10  1  0
 10 11  1  0
 11 12  2  0
 11 13  2  0
 11 14  1  0
 14 15  2  0
 15 16  1  0
 16 17  2  0
 17 18  1  0
 17 19  1  0
 19 20  2  0
 10  2  1  0
 20 14  1  0
  9  4  1  0
M  END
$$$$
