
     RDKit          3D

 24 27  0  0  0  0  0  0  0  0999 V2000
    6.6124   24.1334  -17.8225 C   0  0  0  0  0  0  0  0  0  0  0  0
    5.2025   23.9940  -18.4146 C   0  0  0  0  0  0  0  0  0  0  0  0
    4.6732   25.3660  -18.8153 C   0  0  0  0  0  0  0  0  0  0  0  0
    5.2392   23.1851  -19.6567 C   0  0  0  0  0  0  0  0  0  0  0  0
    4.6065   22.0413  -19.8104 C   0  0  0  0  0  0  0  0  0  0  0  0
    3.8203   21.5319  -18.6981 C   0  0  0  0  0  0  0  0  0  0  0  0
    3.7373   22.2268  -17.5102 C   0  0  0  0  0  0  0  0  0  0  0  0
    2.9788   21.7091  -16.4737 C   0  0  0  0  0  0  0  0  0  0  0  0
    2.3104   20.5166  -16.6123 C   0  0  0  0  0  0  0  0  0  0  0  0
    2.4014   19.8358  -17.7987 C   0  0  0  0  0  0  0  0  0  0  0  0
    3.1492   20.3290  -18.8453 C   0  0  0  0  0  0  0  0  0  0  0  0
    3.2299   19.6369  -20.0231 O   0  0  0  0  0  0  0  0  0  0  0  0
    2.1533   18.8248  -20.5032 C   0  0  0  0  0  0  0  0  0  0  0  0
    1.1224   18.6023  -19.4270 C   0  0  1  0  0  0  0  0  0  0  0  0
    0.2213   17.4716  -19.6516 C   0  0  0  0  0  0  0  0  0  0  0  0
    0.1034   16.5220  -18.6438 C   0  0  0  0  0  0  0  0  0  0  0  0
   -0.6966   15.4093  -18.7224 C   0  0  0  0  0  0  0  0  0  0  0  0
   -1.4175   15.2525  -19.8906 C   0  0  0  0  0  0  0  0  0  0  0  0
   -2.2338   14.1246  -19.9809 O   0  0  0  0  0  0  0  0  0  0  0  0
   -1.3153   16.1770  -20.8951 C   0  0  0  0  0  0  0  0  0  0  0  0
   -0.5049   17.2952  -20.8033 C   0  0  0  0  0  0  0  0  0  0  0  0
   -0.4614   18.1855  -21.8703 O   0  0  0  0  0  0  0  0  0  0  0  0
    1.7119   18.5276  -18.0543 C   0  0  0  0  0  0  0  0  0  0  0  0
    4.4164   23.4165  -17.4001 O   0  0  0  0  0  0  0  0  0  0  0  0
  1  2  1  0
  2  3  1  0
  2  4  1  0
  4  5  2  0
  5  6  1  0
  6  7  2  0
  7  8  1  0
  8  9  2  0
  9 10  1  0
 10 11  2  0
 11 12  1  0
 12 13  1  0
 13 14  1  0
 14 15  1  6
 15 16  2  0
 16 17  1  0
 17 18  2  0
 18 19  1  0
 18 20  1  0
 20 21  2  0
 21 22  1  0
 14 23  1  0
  7 24  1  0
 24  2  1  0
 11  6  1  0
 21 15  1  0
 23 10  1  0
M  END
$$$$
