
     RDKit          3D

 28 31  0  0  0  0  0  0  0  0999 V2000
  -28.8580   21.4510  -26.0607 C   0  0  0  0  0  0  0  0  0  0  0  0
  -28.6473   21.1270  -27.4486 N   0  0  0  0  0  0  0  0  0  0  0  0
  -28.7130   22.1968  -28.4052 C   0  0  0  0  0  0  0  0  0  0  0  0
  -28.7690   23.3509  -27.9212 O   0  0  0  0  0  0  0  0  0  0  0  0
  -28.7188   22.0332  -29.8865 C   0  0  1  0  0  0  0  0  0  0  0  0
  -28.8082   23.3307  -30.5216 N   0  0  0  0  0  0  0  0  0  0  0  0
  -28.5991   23.5504  -31.8926 C   0  0  0  0  0  0  0  0  0  0  0  0
  -29.3149   22.9605  -32.7399 O   0  0  0  0  0  0  0  0  0  0  0  0
  -27.5491   24.4644  -32.3174 C   0  0  0  0  0  0  0  0  0  0  0  0
  -27.2562   24.9530  -33.5760 C   0  0  0  0  0  0  0  0  0  0  0  0
  -26.1623   25.7927  -33.4690 C   0  0  0  0  0  0  0  0  0  0  0  0
  -25.5307   26.5207  -34.5940 C   0  0  0  0  0  0  0  0  0  0  0  0
  -25.5945   25.7326  -35.8508 C   0  0  0  0  0  0  0  0  0  0  0  0
  -26.5754   26.0323  -36.7843 C   0  0  0  0  0  0  0  0  0  0  0  0
  -26.6068   25.2832  -37.9379 C   0  0  0  0  0  0  0  0  0  0  0  0
  -25.7106   24.2658  -38.1862 C   0  0  0  0  0  0  0  0  0  0  0  0
  -24.7543   23.9932  -37.2470 C   0  0  0  0  0  0  0  0  0  0  0  0
  -24.6922   24.7239  -36.0778 C   0  0  0  0  0  0  0  0  0  0  0  0
  -25.8363   25.7938  -32.2205 O   0  0  0  0  0  0  0  0  0  0  0  0
  -26.6251   25.0289  -31.5196 N   0  0  0  0  0  0  0  0  0  0  0  0
  -27.4605   21.3048  -30.3234 C   0  0  0  0  0  0  0  0  0  0  0  0
  -27.5510   19.9215  -30.0708 O   0  0  0  0  0  0  0  0  0  0  0  0
  -27.8954   19.2354  -28.9123 C   0  0  0  0  0  0  0  0  0  0  0  0
  -27.7137   17.8722  -28.9815 C   0  0  0  0  0  0  0  0  0  0  0  0
  -27.9978   17.0136  -27.9342 C   0  0  0  0  0  0  0  0  0  0  0  0
  -28.4906   17.5474  -26.7527 C   0  0  0  0  0  0  0  0  0  0  0  0
  -28.6834   18.9096  -26.6529 C   0  0  0  0  0  0  0  0  0  0  0  0
  -28.3908   19.7401  -27.7149 C   0  0  0  0  0  0  0  0  0  0  0  0
  1  2  1  0
  2  3  1  0
  3  4  2  0
  3  5  1  0
  5  6  1  6
  6  7  1  0
  7  8  2  0
  7  9  1  0
  9 10  1  0
 10 11  2  0
 11 12  1  0
 12 13  1  0
 13 14  2  0
 14 15  1  0
 15 16  2  0
 16 17  1  0
 17 18  2  0
 11 19  1  0
 19 20  1  0
  5 21  1  0
 21 22  1  0
 22 23  1  0
 23 24  2  0
 24 25  1  0
 25 26  2  0
 26 27  1  0
 27 28  2  0
 28  2  1  0
 20  9  2  0
 28 23  1  0
 18 13  1  0
M  END
$$$$
