
     RDKit          3D

 18 17  0  0  0  0  0  0  0  0999 V2000
  -44.3782    7.1902  -24.8266 C   0  0  0  0  0  0  0  0  0  0  0  0
  -43.6208    8.4288  -25.1988 C   0  0  0  0  0  0  0  0  0  0  0  0
  -42.2065    8.4052  -24.6264 C   0  0  0  0  0  0  0  0  0  0  0  0
  -41.5313    9.6904  -25.0787 C   0  0  0  0  0  0  0  0  0  0  0  0
  -40.1930    9.8856  -24.4324 C   0  0  0  0  0  0  0  0  0  0  0  0
  -39.5754   11.1668  -25.0105 C   0  0  0  0  0  0  0  0  0  0  0  0
  -38.1941   11.3545  -24.4590 C   0  0  0  0  0  0  0  0  0  0  0  0
  -37.6212   12.6554  -24.9649 C   0  0  0  0  0  0  0  0  0  0  0  0
  -36.1928   12.7883  -24.5293 C   0  0  0  0  0  0  0  0  0  0  0  0
  -35.5799   14.0500  -25.0929 C   0  0  0  0  0  0  0  0  0  0  0  0
  -34.1408   13.7584  -25.4913 C   0  0  0  0  0  0  0  0  0  0  0  0
  -33.1847   14.1707  -24.4186 C   0  0  0  0  0  0  0  0  0  0  0  0
  -32.7115   15.5622  -24.6122 C   0  0  0  0  0  0  0  0  0  0  0  0
  -31.2214   15.6013  -24.8478 C   0  0  0  0  0  0  0  0  0  0  0  0
  -30.7949   17.0401  -24.5126 C   0  0  0  0  0  0  0  0  0  0  0  0
  -30.7700   17.7768  -25.7839 C   0  0  0  0  0  0  0  0  0  0  0  0
  -31.7002   17.5981  -26.6162 O   0  0  0  0  0  0  0  0  0  0  0  0
  -29.7603   18.6888  -26.1436 O   0  0  0  0  0  0  0  0  0  0  0  0
  1  2  1  0
  2  3  1  0
  3  4  1  0
  4  5  1  0
  5  6  1  0
  6  7  1  0
  7  8  1  0
  8  9  1  0
  9 10  1  0
 10 11  1  0
 11 12  1  0
 12 13  1  0
 13 14  1  0
 14 15  1  0
 15 16  1  0
 16 17  2  0
 16 18  1  0
M  END
$$$$
