
     RDKit          3D

 14 14  0  0  0  0  0  0  0  0999 V2000
  -17.7682   36.7319  -23.7821 C   0  0  0  0  0  0  0  0  0  0  0  0
  -18.3060   37.2860  -22.4399 C   0  0  2  0  0  0  0  0  0  0  0  0
  -19.5681   36.4548  -22.2229 C   0  0  0  0  0  0  0  0  0  0  0  0
  -19.1875   34.7226  -21.8900 S   0  0  0  0  0  0  0  0  0  0  0  0
  -18.7198   38.6878  -22.5624 C   0  0  0  0  0  0  0  0  0  0  0  0
  -19.3708   38.9292  -23.6741 O   0  0  0  0  0  0  0  0  0  0  0  0
  -18.5286   39.7559  -21.7000 N   0  0  0  0  0  0  0  0  0  0  0  0
  -17.8403   39.5428  -20.3834 C   0  0  0  0  0  0  0  0  0  0  0  0
  -16.8220   40.6918  -20.4239 C   0  0  0  0  0  0  0  0  0  0  0  0
  -17.3021   41.6248  -21.5451 C   0  0  0  0  0  0  0  0  0  0  0  0
  -18.7772   41.1296  -21.6123 C   0  0  1  0  0  0  0  0  0  0  0  0
  -19.5594   41.8858  -22.5328 C   0  0  0  0  0  0  0  0  0  0  0  0
  -20.8430   41.7942  -22.3141 O   0  0  0  0  0  0  0  0  0  0  0  0
  -19.2669   42.6833  -23.5936 O   0  0  0  0  0  0  0  0  0  0  0  0
  2  1  1  6
  2  3  1  0
  3  4  1  0
  2  5  1  0
  5  6  2  0
  5  7  1  0
  7  8  1  0
  8  9  1  0
  9 10  1  0
 10 11  1  0
 11 12  1  6
 12 13  2  0
 12 14  1  0
 11  7  1  0
M  END
$$$$
