
     RDKit          3D

 20 21  0  0  0  0  0  0  0  0999 V2000
  -16.9035   43.2725  -20.7860 C   0  0  0  0  0  0  0  0  0  0  0  0
  -17.1208   42.0268  -21.4206 O   0  0  0  0  0  0  0  0  0  0  0  0
  -17.6073   40.9382  -20.6853 C   0  0  0  0  0  0  0  0  0  0  0  0
  -17.6973   40.9707  -19.3440 N   0  0  0  0  0  0  0  0  0  0  0  0
  -18.1638   39.9281  -18.6331 C   0  0  0  0  0  0  0  0  0  0  0  0
  -18.5732   38.7699  -19.2609 C   0  0  0  0  0  0  0  0  0  0  0  0
  -18.4812   38.7424  -20.6027 N   0  0  0  0  0  0  0  0  0  0  0  0
  -18.0163   39.7800  -21.3189 C   0  0  0  0  0  0  0  0  0  0  0  0
  -17.9334   39.7150  -22.7344 N   0  0  0  0  0  0  0  0  0  0  0  0
  -17.4623   38.2308  -23.4551 S   0  0  0  0  0  6  0  0  0  0  0  0
  -17.5441   38.4030  -24.9435 O   0  0  0  0  0  0  0  0  0  0  0  0
  -16.0516   37.8635  -23.1142 O   0  0  0  0  0  0  0  0  0  0  0  0
  -18.5384   36.9396  -22.9942 C   0  0  0  0  0  0  0  0  0  0  0  0
  -19.8369   36.9176  -23.4447 C   0  0  0  0  0  0  0  0  0  0  0  0
  -20.6810   35.8992  -23.0797 C   0  0  0  0  0  0  0  0  0  0  0  0
  -20.2459   34.8840  -22.2586 C   0  0  0  0  0  0  0  0  0  0  0  0
  -18.9396   34.9299  -21.8209 C   0  0  0  0  0  0  0  0  0  0  0  0
  -18.3729   33.6390  -20.7721 Cl  0  0  0  0  0  0  0  0  0  0  0  0
  -18.0653   35.9365  -22.1675 C   0  0  0  0  0  0  0  0  0  0  0  0
  -16.4146   35.9939  -21.6140 Cl  0  0  0  0  0  0  0  0  0  0  0  0
  1  2  1  0
  2  3  1  0
  3  4  2  0
  4  5  1  0
  5  6  2  0
  6  7  1  0
  7  8  2  0
  8  9  1  0
  9 10  1  0
 10 11  2  0
 10 12  2  0
 10 13  1  0
 13 14  2  0
 14 15  1  0
 15 16  2  0
 16 17  1  0
 17 18  1  0
 17 19  2  0
 19 20  1  0
  8  3  1  0
 19 13  1  0
M  END
$$$$
