
     RDKit          3D

 20 22  0  0  0  0  0  0  0  0999 V2000
  -20.3754   37.9160  -22.4530 O   0  0  0  0  0  0  0  0  0  0  0  0
  -19.3223   37.2360  -22.3655 C   0  0  0  0  0  0  0  0  0  0  0  0
  -18.0993   37.8828  -22.3955 C   0  0  0  0  0  0  0  0  0  0  0  0
  -18.0486   39.3196  -22.5259 C   0  0  0  0  0  0  0  0  0  0  0  0
  -17.9981   40.1382  -21.4202 C   0  0  0  0  0  0  0  0  0  0  0  0
  -17.9501   41.5049  -21.5606 C   0  0  0  0  0  0  0  0  0  0  0  0
  -17.9530   42.0501  -22.8163 C   0  0  0  0  0  0  0  0  0  0  0  0
  -17.9034   43.4516  -22.9342 O   0  0  0  0  0  0  0  0  0  0  0  0
  -18.0028   41.2525  -23.9236 C   0  0  0  0  0  0  0  0  0  0  0  0
  -18.0511   39.8770  -23.7844 C   0  0  0  0  0  0  0  0  0  0  0  0
  -16.9646   37.0982  -22.2964 C   0  0  0  0  0  0  0  0  0  0  0  0
  -17.0195   35.7927  -22.1781 O   0  0  0  0  0  0  0  0  0  0  0  0
  -18.1598   35.1452  -22.1462 C   0  0  0  0  0  0  0  0  0  0  0  0
  -18.2118   33.7621  -22.0207 C   0  0  0  0  0  0  0  0  0  0  0  0
  -19.4343   33.1258  -21.9917 C   0  0  0  0  0  0  0  0  0  0  0  0
  -19.4895   31.7390  -21.8660 O   0  0  0  0  0  0  0  0  0  0  0  0
  -20.5941   33.8678  -22.0874 C   0  0  0  0  0  0  0  0  0  0  0  0
  -20.5711   35.2410  -22.2127 C   0  0  0  0  0  0  0  0  0  0  0  0
  -21.7088   36.0238  -22.3116 O   0  0  0  0  0  0  0  0  0  0  0  0
  -19.3464   35.8647  -22.2405 C   0  0  0  0  0  0  0  0  0  0  0  0
  1  2  2  0
  2  3  1  0
  3  4  1  0
  4  5  2  0
  5  6  1  0
  6  7  2  0
  7  8  1  0
  7  9  1  0
  9 10  2  0
  3 11  2  0
 11 12  1  0
 12 13  1  0
 13 14  2  0
 14 15  1  0
 15 16  1  0
 15 17  2  0
 17 18  1  0
 18 19  1  0
 18 20  2  0
 20  2  1  0
 10  4  1  0
 20 13  1  0
M  END
$$$$
