
     RDKit          3D

 18 19  0  0  0  0  0  0  0  0999 V2000
   -0.6691   17.1018  -17.2582 C   0  0  0  0  0  0  0  0  0  0  0  0
    0.7082   16.7966  -16.8088 C   0  0  0  0  0  0  0  0  0  0  0  0
    0.9395   16.5832  -15.4745 C   0  0  0  0  0  0  0  0  0  0  0  0
   -0.4190   16.6824  -14.3661 Cl  0  0  0  0  0  0  0  0  0  0  0  0
    2.2148   16.2979  -15.0260 C   0  0  0  0  0  0  0  0  0  0  0  0
    3.2091   16.2407  -15.9680 C   0  0  0  0  0  0  0  0  0  0  0  0
    2.9717   16.4575  -17.3304 C   0  0  0  0  0  0  0  0  0  0  0  0
    1.7216   16.7418  -17.7856 C   0  0  0  0  0  0  0  0  0  0  0  0
    1.4207   17.0456  -19.1248 N   0  0  0  0  0  0  0  0  0  0  0  0
    1.5718   18.2525  -19.8385 C   0  0  0  0  0  0  0  0  0  0  0  0
    2.3384   19.2896  -19.3353 C   0  0  0  0  0  0  0  0  0  0  0  0
    2.5934   20.4612  -20.0068 C   0  0  0  0  0  0  0  0  0  0  0  0
    2.0412   20.5910  -21.2518 C   0  0  0  0  0  0  0  0  0  0  0  0
    1.2758   19.6032  -21.7971 C   0  0  0  0  0  0  0  0  0  0  0  0
    1.0183   18.4105  -21.1141 C   0  0  0  0  0  0  0  0  0  0  0  0
    0.2310   17.3765  -21.7394 C   0  0  0  0  0  0  0  0  0  0  0  0
   -0.1114   16.3773  -20.9951 O   0  0  0  0  0  0  0  0  0  0  0  0
   -0.2205   17.2875  -23.0231 O   0  0  0  0  0  0  0  0  0  0  0  0
  1  2  1  0
  2  3  2  0
  3  4  1  0
  3  5  1  0
  5  6  2  0
  6  7  1  0
  7  8  2  0
  8  9  1  0
  9 10  1  0
 10 11  2  0
 11 12  1  0
 12 13  2  0
 13 14  1  0
 14 15  2  0
 15 16  1  0
 16 17  2  0
 16 18  1  0
  8  2  1  0
 15 10  1  0
M  END
$$$$
