
     RDKit          3D

 24 25  0  0  0  0  0  0  0  0999 V2000
  -16.7857   19.1355  -30.7933 C   0  0  0  0  0  0  0  0  0  0  0  0
  -16.6475   19.5085  -32.2686 C   0  0  0  0  0  0  0  0  0  0  0  0
  -17.0452   20.9616  -32.4025 C   0  0  0  0  0  0  0  0  0  0  0  0
  -15.1989   19.2808  -32.6270 C   0  0  0  0  0  0  0  0  0  0  0  0
  -17.4815   18.5924  -33.0665 C   0  0  0  0  0  0  0  0  0  0  0  0
  -17.7108   18.8856  -34.2635 O   0  0  0  0  0  0  0  0  0  0  0  0
  -18.0575   17.3605  -32.5401 C   0  0  0  0  0  0  0  0  0  0  0  0
  -19.2977   17.1309  -32.7143 N   0  0  0  0  0  0  0  0  0  0  0  0
  -19.8663   15.8625  -32.6956 C   0  0  0  0  0  0  0  0  0  0  0  0
  -19.5902   14.9580  -33.6882 C   0  0  0  0  0  0  0  0  0  0  0  0
  -20.0971   13.6818  -33.7067 C   0  0  0  0  0  0  0  0  0  0  0  0
  -20.9242   13.2623  -32.6946 C   0  0  0  0  0  0  0  0  0  0  0  0
  -21.5949   11.6207  -32.6898 Cl  0  0  0  0  0  0  0  0  0  0  0  0
  -21.2229   14.1452  -31.6808 C   0  0  0  0  0  0  0  0  0  0  0  0
  -20.6931   15.4426  -31.6843 C   0  0  0  0  0  0  0  0  0  0  0  0
  -17.2999   16.3919  -31.8197 N   0  0  0  0  0  0  0  0  0  0  0  0
  -15.9228   16.2875  -31.9211 N   0  0  0  0  0  0  0  0  0  0  0  0
  -15.2246   15.2674  -31.2379 C   0  0  0  0  0  0  0  0  0  0  0  0
  -15.7635   14.6171  -30.1317 C   0  0  0  0  0  0  0  0  0  0  0  0
  -15.0643   13.6196  -29.4799 C   0  0  0  0  0  0  0  0  0  0  0  0
  -13.8105   13.2460  -29.9150 C   0  0  0  0  0  0  0  0  0  0  0  0
  -12.9016   11.9699  -29.0909 Cl  0  0  0  0  0  0  0  0  0  0  0  0
  -13.2756   13.8891  -31.0102 C   0  0  0  0  0  0  0  0  0  0  0  0
  -13.9754   14.8875  -31.6627 C   0  0  0  0  0  0  0  0  0  0  0  0
  1  2  1  0
  2  3  1  0
  2  4  1  0
  2  5  1  0
  5  6  2  0
  5  7  1  0
  7  8  2  0
  8  9  1  0
  9 10  2  0
 10 11  1  0
 11 12  2  0
 12 13  1  0
 12 14  1  0
 14 15  2  0
  7 16  1  0
 16 17  1  0
 17 18  1  0
 18 19  2  0
 19 20  1  0
 20 21  2  0
 21 22  1  0
 21 23  1  0
 23 24  2  0
 15  9  1  0
 24 18  1  0
M  END
$$$$
