
     RDKit          3D

 26 28  0  0  0  0  0  0  0  0999 V2000
  -18.0207   41.7661  -22.6656 Cl  0  0  0  0  0  0  0  0  0  0  0  0
  -14.7657   44.6121  -20.3935 C   0  0  0  0  0  0  0  0  0  0  0  0
  -15.8198   43.6138  -20.2074 N   0  0  0  0  0  0  0  0  0  0  0  0
  -16.3110   42.8728  -21.1978 C   0  0  0  0  0  0  0  0  0  0  0  0
  -17.2734   42.0578  -20.6493 C   0  0  0  0  0  0  0  0  0  0  0  0
  -18.0715   41.1085  -21.4106 C   0  0  0  0  0  0  0  0  0  0  0  0
  -18.6946   41.5092  -22.5333 N   0  0  0  0  0  0  0  0  0  0  0  0
  -19.4237   40.6744  -23.2572 C   0  0  0  0  0  0  0  0  0  0  0  0
  -20.0762   41.1254  -24.4473 N   0  0  0  0  0  0  0  0  0  0  0  0
  -19.9660   42.4826  -24.9229 C   0  0  2  0  0  0  0  0  0  0  0  0
  -20.8694   42.6277  -26.1331 C   0  0  0  0  0  0  0  0  0  0  0  0
  -20.6671   43.8869  -26.9005 C   0  0  0  0  0  0  0  0  0  0  0  0
  -19.1979   44.1118  -27.1862 C   0  0  0  0  0  0  0  0  0  0  0  0
  -18.4593   44.1543  -25.8658 C   0  0  0  0  0  0  0  0  0  0  0  0
  -18.5177   42.7258  -25.3032 C   0  0  2  0  0  0  0  0  0  0  0  0
  -18.0472   41.8498  -26.3322 N   0  0  0  0  0  0  0  0  0  0  0  0
  -19.5602   39.3663  -22.8718 C   0  0  0  0  0  0  0  0  0  0  0  0
  -20.3160   38.5297  -23.6343 F   0  0  0  0  0  0  0  0  0  0  0  0
  -18.9460   38.9039  -21.7356 C   0  0  0  0  0  0  0  0  0  0  0  0
  -18.1865   39.7917  -20.9909 C   0  0  0  0  0  0  0  0  0  0  0  0
  -17.6319   39.0557  -19.8614 C   0  0  0  0  0  0  0  0  0  0  0  0
  -16.8815   39.5199  -18.9551 O   0  0  0  0  0  0  0  0  0  0  0  0
  -18.0883   37.7208  -19.9669 N   0  0  0  0  0  0  0  0  0  0  0  0
  -18.9324   37.5610  -21.1069 C   0  0  0  0  0  0  0  0  0  0  0  0
  -17.3316   42.3430  -19.3128 C   0  0  0  0  0  0  0  0  0  0  0  0
  -16.4087   43.3178  -19.0811 N   0  0  0  0  0  0  0  0  0  0  0  0
  2  3  1  0
  3  4  1  0
  4  5  2  0
  5  6  1  0
  6  7  2  0
  7  8  1  0
  8  9  1  0
 10  9  1  6
 10 11  1  0
 11 12  1  0
 12 13  1  0
 13 14  1  0
 14 15  1  0
 15 16  1  6
  8 17  2  0
 17 18  1  0
 17 19  1  0
 19 20  2  0
 20 21  1  0
 21 22  2  0
 21 23  1  0
 23 24  1  0
  5 25  1  0
 25 26  2  0
 26  3  1  0
 20  6  1  0
 15 10  1  0
 24 19  1  0
M  END
$$$$
