
     RDKit          3D

 20 22  0  0  0  0  0  0  0  0999 V2000
  -18.1884   41.9312  -23.3913 N   0  0  0  0  0  0  0  0  0  0  0  0
  -18.1483   40.9858  -22.3320 C   0  0  0  0  0  0  0  0  0  0  0  0
  -17.8409   41.3086  -21.0595 N   0  0  0  0  0  0  0  0  0  0  0  0
  -17.8055   40.4204  -20.0756 C   0  0  0  0  0  0  0  0  0  0  0  0
  -17.4928   40.7800  -18.8095 F   0  0  0  0  0  0  0  0  0  0  0  0
  -18.0818   39.1274  -20.3117 N   0  0  0  0  0  0  0  0  0  0  0  0
  -18.3986   38.7163  -21.5524 C   0  0  0  0  0  0  0  0  0  0  0  0
  -18.4317   39.6443  -22.5603 C   0  0  0  0  0  0  0  0  0  0  0  0
  -18.7666   39.0000  -23.6823 N   0  0  0  0  0  0  0  0  0  0  0  0
  -18.9369   37.6996  -23.3723 C   0  0  0  0  0  0  0  0  0  0  0  0
  -18.7122   37.5088  -22.0556 N   0  0  0  0  0  0  0  0  0  0  0  0
  -18.7875   36.2639  -21.3125 C   0  0  2  0  0  0  0  0  0  0  0  0
  -17.6317   35.5576  -21.4874 O   0  0  0  0  0  0  0  0  0  0  0  0
  -17.8551   34.4544  -22.2532 C   0  0  2  0  0  0  0  0  0  0  0  0
  -16.8326   34.1795  -23.3038 C   0  0  0  0  0  0  0  0  0  0  0  0
  -17.1673   33.0225  -23.9865 O   0  0  0  0  0  0  0  0  0  0  0  0
  -19.2443   34.5980  -22.8697 C   0  0  1  0  0  0  0  0  0  0  0  0
  -19.8671   33.3709  -22.9803 O   0  0  0  0  0  0  0  0  0  0  0  0
  -19.9192   35.4072  -21.7540 C   0  0  2  0  0  0  0  0  0  0  0  0
  -21.0318   36.0611  -22.1846 O   0  0  0  0  0  0  0  0  0  0  0  0
  1  2  1  0
  2  3  2  0
  3  4  1  0
  4  5  1  0
  4  6  2  0
  6  7  1  0
  7  8  2  0
  8  9  1  0
  9 10  2  0
 10 11  1  0
 12 11  1  6
 12 13  1  0
 13 14  1  0
 14 15  1  6
 15 16  1  0
 14 17  1  0
 17 18  1  1
 17 19  1  0
 19 20  1  6
  8  2  1  0
 19 12  1  0
 11  7  1  0
M  END
$$$$
