
     RDKit          3D

 34 37  0  0  0  0  0  0  0  0999 V2000
  -16.2739   47.6644  -19.8384 C   0  0  0  0  0  0  0  0  0  0  0  0
  -16.9704   46.3712  -19.8924 C   0  0  0  0  0  0  0  0  0  0  0  0
  -17.0132   45.7028  -21.1090 C   0  0  0  0  0  0  0  0  0  0  0  0
  -17.6701   44.4696  -21.1983 C   0  0  0  0  0  0  0  0  0  0  0  0
  -17.6790   43.7643  -22.4745 C   0  0  0  0  0  0  0  0  0  0  0  0
  -17.3494   44.4006  -23.6798 C   0  0  0  0  0  0  0  0  0  0  0  0
  -17.4561   43.4648  -24.6709 C   0  0  0  0  0  0  0  0  0  0  0  0
  -17.8485   42.2872  -24.0320 C   0  0  0  0  0  0  0  0  0  0  0  0
  -18.0590   41.0648  -24.8148 C   0  0  0  0  0  0  0  0  0  0  0  0
  -18.0246   39.8593  -24.3290 C   0  0  0  0  0  0  0  0  0  0  0  0
  -17.2317   39.2549  -22.8312 S   0  0  0  0  0  0  0  0  0  0  0  0
  -17.7439   37.5596  -23.0494 C   0  0  0  0  0  0  0  0  0  0  0  0
  -17.4631   36.4607  -22.1973 N   0  0  0  0  0  0  0  0  0  0  0  0
  -18.3640   35.3636  -22.0541 C   0  0  0  0  0  0  0  0  0  0  0  0
  -18.9874   34.7380  -23.1076 C   0  0  0  0  0  0  0  0  0  0  0  0
  -19.8673   33.6718  -22.9178 C   0  0  0  0  0  0  0  0  0  0  0  0
  -20.1338   33.2168  -21.6469 C   0  0  0  0  0  0  0  0  0  0  0  0
  -21.2412   31.8689  -21.3753 Cl  0  0  0  0  0  0  0  0  0  0  0  0
  -19.5200   33.8297  -20.5804 C   0  0  0  0  0  0  0  0  0  0  0  0
  -19.8043   33.3482  -19.2349 C   0  0  0  0  0  0  0  0  0  0  0  0
  -20.5095   32.3351  -19.0871 O   0  0  0  0  0  0  0  0  0  0  0  0
  -19.2799   34.0327  -18.1340 O   0  0  0  0  0  0  0  0  0  0  0  0
  -18.6450   34.8922  -20.7923 C   0  0  0  0  0  0  0  0  0  0  0  0
  -18.4173   37.5064  -24.1162 N   0  0  0  0  0  0  0  0  0  0  0  0
  -18.6253   38.6474  -24.8616 C   0  0  0  0  0  0  0  0  0  0  0  0
  -19.3038   38.6506  -25.9540 O   0  0  0  0  0  0  0  0  0  0  0  0
  -17.9589   42.5282  -22.7700 O   0  0  0  0  0  0  0  0  0  0  0  0
  -18.2575   43.9480  -20.0868 C   0  0  0  0  0  0  0  0  0  0  0  0
  -18.9328   42.7361  -20.0589 N   0  0  0  0  0  4  0  0  0  0  0  0
  -18.7768   41.8488  -19.2363 O   0  0  0  0  0  0  0  0  0  0  0  0
  -19.8485   42.4520  -21.0781 O   0  0  0  0  0  1  0  0  0  0  0  0
  -18.2013   44.6484  -18.8494 C   0  0  0  0  0  0  0  0  0  0  0  0
  -17.5602   45.8507  -18.7623 C   0  0  0  0  0  0  0  0  0  0  0  0
  -17.4720   46.6173  -17.4942 C   0  0  0  0  0  0  0  0  0  0  0  0
  1  2  1  0
  2  3  2  0
  3  4  1  0
  4  5  1  0
  5  6  2  0
  6  7  1  0
  7  8  2  0
  8  9  1  0
  9 10  2  0
 10 11  1  0
 11 12  1  0
 12 13  1  0
 13 14  1  0
 14 15  2  0
 15 16  1  0
 16 17  2  0
 17 18  1  0
 17 19  1  0
 19 20  1  0
 20 21  2  0
 20 22  1  0
 19 23  2  0
 12 24  2  0
 24 25  1  0
 25 26  2  0
  8 27  1  0
  4 28  2  0
 28 29  1  0
 29 30  2  0
 29 31  1  0
 28 32  1  0
 32 33  2  0
 33 34  1  0
 33  2  1  0
 27  5  1  0
 25 10  1  0
 23 14  1  0
M  CHG  2  29   1  31  -1
M  END
$$$$
