
     RDKit          3D

 20 22  0  0  0  0  0  0  0  0999 V2000
  -16.4878   38.0792  -21.8026 O   0  0  0  0  0  0  0  0  0  0  0  0
  -17.7177   38.1993  -21.6665 C   0  0  0  0  0  0  0  0  0  0  0  0
  -18.6129   36.9965  -21.5374 C   0  0  0  0  0  0  0  0  0  0  0  0
  -18.8152   36.3158  -22.8536 C   0  0  0  0  0  0  0  0  0  0  0  0
  -17.6475   34.8954  -22.8899 S   0  0  0  0  0  0  0  0  0  0  0  0
  -18.8054   33.7077  -22.2341 C   0  0  0  0  0  0  0  0  0  0  0  0
  -18.8450   32.4752  -21.7333 N   0  0  0  0  0  0  0  0  0  0  0  0
  -20.1329   32.2363  -21.4335 C   0  0  0  0  0  0  0  0  0  0  0  0
  -20.8234   33.3404  -21.7672 N   0  0  0  0  0  0  0  0  0  0  0  0
  -19.9960   34.2787  -22.2749 N   0  0  0  0  0  0  0  0  0  0  0  0
  -20.1064   35.5621  -22.7747 C   0  0  0  0  0  0  0  0  0  0  0  0
  -21.1724   36.1572  -23.1673 O   0  0  0  0  0  0  0  0  0  0  0  0
  -18.2863   39.4955  -21.6327 N   0  0  0  0  0  0  0  0  0  0  0  0
  -17.5877   40.7216  -21.6099 C   0  0  0  0  0  0  0  0  0  0  0  0
  -18.3549   41.8811  -21.4863 C   0  0  0  0  0  0  0  0  0  0  0  0
  -17.7851   43.1374  -21.4526 C   0  0  0  0  0  0  0  0  0  0  0  0
  -16.4214   43.3081  -21.5401 C   0  0  0  0  0  0  0  0  0  0  0  0
  -15.6326   45.0600  -21.4926 Br  0  0  0  0  0  0  0  0  0  0  0  0
  -15.6471   42.1768  -21.6625 C   0  0  0  0  0  0  0  0  0  0  0  0
  -16.2495   40.9205  -21.6939 C   0  0  0  0  0  0  0  0  0  0  0  0
  1  2  2  0
  2  3  1  0
  3  4  1  0
  4  5  1  0
  5  6  1  0
  6  7  2  0
  7  8  1  0
  8  9  2  0
  9 10  1  0
 10 11  1  0
 11 12  2  0
  2 13  1  0
 13 14  1  0
 14 15  2  0
 15 16  1  0
 16 17  2  0
 17 18  1  0
 17 19  1  0
 19 20  2  0
 11  4  1  0
 20 14  1  0
 10  6  1  0
M  END
$$$$
