
     RDKit          3D

 37 41  0  0  0  0  0  0  0  0999 V2000
  -19.3683   21.0623  -36.5954 C   0  0  0  0  0  0  0  0  0  0  0  0
  -20.3907   19.9814  -36.3762 C   0  0  0  0  0  0  0  0  0  0  0  0
  -20.6181   19.0178  -37.3209 C   0  0  0  0  0  0  0  0  0  0  0  0
  -21.5508   18.0225  -37.1341 C   0  0  0  0  0  0  0  0  0  0  0  0
  -22.2818   17.9823  -35.9713 C   0  0  0  0  0  0  0  0  0  0  0  0
  -23.2384   16.9171  -35.8345 N   0  0  0  0  0  0  0  0  0  0  0  0
  -23.6338   16.4262  -34.5682 C   0  0  0  0  0  0  0  0  0  0  0  0
  -23.6554   17.2681  -33.6216 O   0  0  0  0  0  0  0  0  0  0  0  0
  -24.0089   15.0429  -34.2908 C   0  0  0  0  0  0  0  0  0  0  0  0
  -23.5088   14.3222  -33.2302 C   0  0  0  0  0  0  0  0  0  0  0  0
  -23.8856   13.0025  -32.9866 C   0  0  0  0  0  0  0  0  0  0  0  0
  -24.7829   12.3538  -33.8028 C   0  0  0  0  0  0  0  0  0  0  0  0
  -25.2425   10.9674  -33.6247 C   0  0  0  0  0  0  0  0  0  0  0  0
  -26.2877   10.8042  -32.6779 N   0  0  0  0  0  0  0  0  0  0  0  0
  -25.9251   10.2169  -31.4368 C   0  0  0  0  0  0  0  0  0  0  0  0
  -27.1840    9.8063  -30.7016 C   0  0  0  0  0  0  0  0  0  0  0  0
  -28.1888   10.8167  -30.6922 N   0  0  0  0  0  0  0  0  0  0  0  0
  -27.9417   11.8969  -29.7726 C   0  0  0  0  0  0  0  0  0  0  0  0
  -28.5024   11.3466  -31.9917 C   0  0  0  0  0  0  0  0  0  0  0  0
  -27.2213   11.8817  -32.5965 C   0  0  0  0  0  0  0  0  0  0  0  0
  -25.2896   13.0788  -34.8748 C   0  0  0  0  0  0  0  0  0  0  0  0
  -24.9149   14.3840  -35.1130 C   0  0  0  0  0  0  0  0  0  0  0  0
  -22.0753   18.9402  -35.0000 C   0  0  0  0  0  0  0  0  0  0  0  0
  -21.1461   19.9295  -35.1890 C   0  0  0  0  0  0  0  0  0  0  0  0
  -20.8819   20.9300  -34.2466 N   0  0  0  0  0  0  0  0  0  0  0  0
  -20.0082   20.7804  -33.1568 C   0  0  0  0  0  0  0  0  0  0  0  0
  -19.9797   21.4792  -32.0342 N   0  0  0  0  0  0  0  0  0  0  0  0
  -19.1196   21.2760  -31.0435 C   0  0  0  0  0  0  0  0  0  0  0  0
  -18.1671   20.2651  -31.1602 C   0  0  0  0  0  0  0  0  0  0  0  0
  -18.1680   19.5208  -32.3114 C   0  0  0  0  0  0  0  0  0  0  0  0
  -17.2266   18.4393  -32.5511 C   0  0  0  0  0  0  0  0  0  0  0  0
  -17.5635   17.3345  -33.2817 C   0  0  0  0  0  0  0  0  0  0  0  0
  -16.6314   16.3002  -33.5001 C   0  0  0  0  0  0  0  0  0  0  0  0
  -15.3874   16.4295  -32.9650 C   0  0  0  0  0  0  0  0  0  0  0  0
  -15.0485   17.5090  -32.2474 N   0  0  0  0  0  0  0  0  0  0  0  0
  -15.9450   18.4882  -32.0459 C   0  0  0  0  0  0  0  0  0  0  0  0
  -19.0742   19.7932  -33.2651 N   0  0  0  0  0  0  0  0  0  0  0  0
  1  2  1  0
  2  3  2  0
  3  4  1  0
  4  5  2  0
  5  6  1  0
  6  7  1  0
  7  8  2  0
  7  9  1  0
  9 10  2  0
 10 11  1  0
 11 12  2  0
 12 13  1  0
 13 14  1  0
 14 15  1  0
 15 16  1  0
 16 17  1  0
 17 18  1  0
 17 19  1  0
 19 20  1  0
 12 21  1  0
 21 22  2  0
  5 23  1  0
 23 24  2  0
 24 25  1  0
 25 26  1  0
 26 27  2  0
 27 28  1  0
 28 29  2  0
 29 30  1  0
 30 31  1  0
 31 32  2  0
 32 33  1  0
 33 34  2  0
 34 35  1  0
 35 36  2  0
 30 37  2  0
 24  2  1  0
 37 26  1  0
 22  9  1  0
 36 31  1  0
 20 14  1  0
M  END
$$$$
