
     RDKit          3D

 14 15  0  0  0  0  0  0  0  0999 V2000
    0.6284    7.5455  -43.8099 C   0  0  0  0  0  0  0  0  0  0  0  0
    0.5989    7.2263  -42.3477 C   0  0  0  0  0  0  0  0  0  0  0  0
    1.4762    6.3311  -41.7709 C   0  0  0  0  0  0  0  0  0  0  0  0
    1.4520    6.0340  -40.4220 C   0  0  0  0  0  0  0  0  0  0  0  0
    0.5205    6.6454  -39.5955 C   0  0  0  0  0  0  0  0  0  0  0  0
    0.4679    6.3704  -38.2362 C   0  0  0  0  0  0  0  0  0  0  0  0
    1.5919    5.2304  -37.5264 Cl  0  0  0  0  0  0  0  0  0  0  0  0
   -0.4672    6.9904  -37.4331 C   0  0  0  0  0  0  0  0  0  0  0  0
   -1.3464    7.8883  -38.0145 C   0  0  0  0  0  0  0  0  0  0  0  0
   -2.5415    8.6894  -37.0249 Cl  0  0  0  0  0  0  0  0  0  0  0  0
   -1.2764    8.1473  -39.3700 C   0  0  0  0  0  0  0  0  0  0  0  0
   -2.1592    9.0539  -39.9748 O   0  0  0  0  0  0  0  0  0  0  0  0
   -0.3462    7.5371  -40.1964 C   0  0  0  0  0  0  0  0  0  0  0  0
   -0.2935    7.8038  -41.5215 N   0  0  0  0  0  0  0  0  0  0  0  0
  1  2  1  0
  2  3  2  0
  3  4  1  0
  4  5  2  0
  5  6  1  0
  6  7  1  0
  6  8  2  0
  8  9  1  0
  9 10  1  0
  9 11  2  0
 11 12  1  0
 11 13  1  0
 13 14  2  0
 14  2  1  0
 13  5  1  0
M  END
$$$$
