
     RDKit          3D

 32 36  0  0  0  0  0  0  0  0999 V2000
  -12.5869   43.6423  -19.5860 C   0  0  0  0  0  0  0  0  0  0  0  0
  -13.3441   44.6255  -18.7793 C   0  0  0  0  0  0  0  0  0  0  0  0
  -12.6367   45.4760  -17.9154 C   0  0  0  0  0  0  0  0  0  0  0  0
  -13.3403   46.3894  -17.1786 C   0  0  0  0  0  0  0  0  0  0  0  0
  -12.6964   47.2932  -16.2628 N   0  0  0  0  0  0  0  0  0  0  0  0
  -13.5068   48.2440  -15.5666 C   0  0  0  0  0  0  0  0  0  0  0  0
  -12.9635   48.7586  -14.2866 C   0  0  2  0  0  0  0  0  0  0  0  0
  -12.6852   50.2498  -14.3969 C   0  0  0  0  0  0  0  0  0  0  0  0
  -11.7933   48.0925  -13.8066 N   0  0  0  0  0  0  0  0  0  0  0  0
  -10.7878   47.8424  -14.7882 C   0  0  2  0  0  0  0  0  0  0  0  0
   -9.9068   49.0541  -15.0485 C   0  0  0  0  0  0  0  0  0  0  0  0
  -11.2817   47.2244  -16.0627 C   0  0  0  0  0  0  0  0  0  0  0  0
  -14.6686   46.4515  -17.2957 N   0  0  0  0  0  0  0  0  0  0  0  0
  -15.3519   45.6317  -18.1284 C   0  0  0  0  0  0  0  0  0  0  0  0
  -14.7007   44.6874  -18.8996 C   0  0  0  0  0  0  0  0  0  0  0  0
  -15.4943   43.8254  -19.7694 C   0  0  0  0  0  0  0  0  0  0  0  0
  -16.1634   44.3142  -20.8642 C   0  0  0  0  0  0  0  0  0  0  0  0
  -16.9050   43.4789  -21.6455 C   0  0  0  0  0  0  0  0  0  0  0  0
  -17.0281   42.1157  -21.3909 C   0  0  0  0  0  0  0  0  0  0  0  0
  -17.8398   41.2885  -22.2664 C   0  0  0  0  0  0  0  0  0  0  0  0
  -17.8088   39.9391  -22.0855 N   0  0  0  0  0  0  0  0  0  0  0  0
  -18.5297   39.1149  -22.8589 C   0  0  0  0  0  0  0  0  0  0  0  0
  -19.3213   39.6415  -23.8604 C   0  0  0  0  0  0  0  0  0  0  0  0
  -19.9350   38.5558  -24.4791 C   0  0  0  0  0  0  0  0  0  0  0  0
  -19.4801   37.4402  -23.8175 C   0  0  0  0  0  0  0  0  0  0  0  0
  -18.6298   37.7611  -22.8354 N   0  0  0  0  0  0  0  0  0  0  0  0
  -17.9298   36.8628  -21.9077 C   0  0  0  0  0  0  0  0  0  0  0  0
  -19.3627   41.0015  -24.0551 C   0  0  0  0  0  0  0  0  0  0  0  0
  -20.0750   41.4788  -24.9572 O   0  0  0  0  0  0  0  0  0  0  0  0
  -18.6038   41.7904  -23.2328 N   0  0  0  0  0  0  0  0  0  0  0  0
  -16.3451   41.6630  -20.2879 C   0  0  0  0  0  0  0  0  0  0  0  0
  -15.5876   42.4887  -19.4810 C   0  0  0  0  0  0  0  0  0  0  0  0
  1  2  1  0
  2  3  2  0
  3  4  1  0
  4  5  1  0
  5  6  1  0
  6  7  1  0
  7  8  1  6
  7  9  1  0
  9 10  1  0
 10 11  1  6
 10 12  1  0
  4 13  2  0
 13 14  1  0
 14 15  2  0
 15 16  1  0
 16 17  2  0
 17 18  1  0
 18 19  2  0
 19 20  1  0
 20 21  2  0
 21 22  1  0
 22 23  2  0
 23 24  1  0
 24 25  2  0
 25 26  1  0
 26 27  1  0
 23 28  1  0
 28 29  2  0
 28 30  1  0
 19 31  1  0
 31 32  2  0
 15  2  1  0
 32 16  1  0
 12  5  1  0
 30 20  1  0
 26 22  1  0
M  END
$$$$
