
     RDKit          3D

 21 22  0  0  0  0  0  0  0  0999 V2000
  -19.4073   40.7002  -26.3856 C   0  0  0  0  0  0  0  0  0  0  0  0
  -18.7384   40.3768  -25.1537 N   0  0  0  0  0  0  0  0  0  0  0  0
  -19.2519   39.1662  -24.5388 C   0  0  1  0  0  0  0  0  0  0  0  0
  -19.0610   38.0347  -25.4841 C   0  0  0  0  0  0  0  0  0  0  0  0
  -18.9680   36.6792  -24.8799 C   0  0  0  0  0  0  0  0  0  0  0  0
  -19.2515   36.6634  -23.3973 C   0  0  1  0  0  0  0  0  0  0  0  0
  -19.0209   35.3345  -22.7811 C   0  0  0  0  0  0  0  0  0  0  0  0
  -19.8900   34.8222  -21.8121 C   0  0  0  0  0  0  0  0  0  0  0  0
  -19.6923   33.5893  -21.2264 C   0  0  0  0  0  0  0  0  0  0  0  0
  -18.6101   32.8188  -21.5918 C   0  0  0  0  0  0  0  0  0  0  0  0
  -18.3763   31.2527  -20.8347 Cl  0  0  0  0  0  0  0  0  0  0  0  0
  -17.7357   33.2948  -22.5433 C   0  0  0  0  0  0  0  0  0  0  0  0
  -16.3708   32.2887  -22.9836 Cl  0  0  0  0  0  0  0  0  0  0  0  0
  -17.9504   34.5359  -23.1208 C   0  0  0  0  0  0  0  0  0  0  0  0
  -18.5555   37.7544  -22.6815 C   0  0  0  0  0  0  0  0  0  0  0  0
  -17.9179   37.5706  -21.4863 C   0  0  0  0  0  0  0  0  0  0  0  0
  -17.2795   38.6530  -20.8681 C   0  0  0  0  0  0  0  0  0  0  0  0
  -17.2710   39.9167  -21.4304 C   0  0  0  0  0  0  0  0  0  0  0  0
  -17.9186   40.0823  -22.6348 C   0  0  0  0  0  0  0  0  0  0  0  0
  -18.5486   39.0064  -23.2413 C   0  0  0  0  0  0  0  0  0  0  0  0
  -18.6640   36.6739  -23.1404 Cl  0  0  0  0  0  0  0  0  0  0  0  0
  1  2  1  0
  3  2  1  6
  3  4  1  0
  4  5  1  0
  5  6  1  0
  6  7  1  1
  7  8  2  0
  8  9  1  0
  9 10  2  0
 10 11  1  0
 10 12  1  0
 12 13  1  0
 12 14  2  0
  6 15  1  0
 15 16  2  0
 16 17  1  0
 17 18  2  0
 18 19  1  0
 19 20  2  0
 20  3  1  0
 14  7  1  0
 20 15  1  0
M  END
$$$$
