
     RDKit          3D

 30 35  0  0  0  0  0  0  0  0999 V2000
  -19.3334   33.2884  -20.7618 C   0  0  0  0  0  0  0  0  0  0  0  0
  -19.2342   34.7300  -21.2556 C   0  0  0  0  0  0  0  0  0  0  0  0
  -17.9523   34.8214  -22.0510 C   0  0  0  0  0  0  0  0  0  0  0  0
  -18.1975   35.7759  -23.2270 C   0  0  0  0  0  0  0  0  0  0  0  0
  -19.1328   36.8576  -22.7731 C   0  0  1  0  0  0  0  0  0  0  0  0
  -20.4639   36.2875  -22.7123 N   0  0  0  0  0  0  0  0  0  0  0  0
  -20.4551   34.9711  -22.1244 C   0  0  0  0  0  0  0  0  0  0  0  0
  -18.7623   37.4612  -21.5840 O   0  0  0  0  0  0  0  0  0  0  0  0
  -19.4837   38.6198  -21.5030 C   0  0  1  0  0  0  0  0  0  0  0  0
  -18.8392   39.6779  -20.6047 C   0  0  0  0  0  0  0  0  0  0  0  0
  -18.7915   40.8443  -21.5191 C   0  0  1  0  0  0  0  0  0  0  0  0
  -18.0225   42.0384  -21.0811 C   0  0  2  0  0  0  0  0  0  0  0  0
  -19.0380   43.0464  -20.5950 C   0  0  0  0  0  0  0  0  0  0  0  0
  -18.5208   44.4322  -20.5902 C   0  0  0  0  0  0  0  0  0  0  0  0
  -17.4223   44.8581  -21.1741 C   0  0  0  0  0  0  0  0  0  0  0  0
  -16.9647   46.2970  -21.1191 C   0  0  0  0  0  0  0  0  0  0  0  0
  -15.6218   46.2701  -20.4636 C   0  0  0  0  0  0  0  0  0  0  0  0
  -15.0314   47.5199  -20.6543 O   0  0  0  0  0  0  0  0  0  0  0  0
  -14.6782   45.2308  -20.9430 C   0  0  0  0  0  0  0  0  0  0  0  0
  -15.2456   43.8619  -21.1592 C   0  0  0  0  0  0  0  0  0  0  0  0
  -16.5666   43.9411  -21.9153 C   0  0  0  0  0  0  0  0  0  0  0  0
  -16.2060   44.5375  -23.2728 C   0  0  0  0  0  0  0  0  0  0  0  0
  -17.1230   42.5837  -22.1444 C   0  0  0  0  0  0  0  0  0  0  0  0
  -17.7212   42.5171  -23.5208 C   0  0  0  0  0  0  0  0  0  0  0  0
  -18.3600   41.2265  -23.8650 C   0  0  0  0  0  0  0  0  0  0  0  0
  -18.3079   40.1895  -22.7987 C   0  0  0  0  0  0  0  0  0  0  0  0
  -16.9690   39.5120  -22.6511 C   0  0  0  0  0  0  0  0  0  0  0  0
  -19.4316   39.1713  -22.9213 C   0  0  1  0  0  0  0  0  0  0  0  0
  -19.1430   38.0013  -23.7715 C   0  0  2  0  0  0  0  0  0  0  0  0
  -20.3433   37.8100  -24.7108 C   0  0  0  0  0  0  0  0  0  0  0  0
  1  2  1  0
  2  3  1  0
  3  4  1  0
  5  4  1  6
  5  6  1  0
  6  7  1  0
  5  8  1  0
  8  9  1  0
  9 10  1  1
 11 10  1  1
 11 12  1  0
 12 13  1  6
 13 14  1  0
 14 15  2  0
 15 16  1  0
 16 17  1  0
 17 18  1  0
 17 19  1  0
 19 20  1  0
 20 21  1  0
 21 22  1  0
 21 23  1  0
 23 24  1  0
 24 25  1  0
 25 26  1  0
 26 27  1  0
 28 26  1  1
 28 29  1  0
 29 30  1  6
  7  2  1  0
 28  9  1  0
 29  5  1  0
 26 11  1  0
 23 12  1  0
 21 15  1  0
M  END
$$$$
