
     RDKit          3D

 25 25  0  0  0  0  0  0  0  0999 V2000
  -16.2226   -7.3032  -30.0855 C   0  0  0  0  0  0  0  0  0  0  0  0
  -16.0381   -5.8697  -29.6236 C   0  0  0  0  0  0  0  0  0  0  0  0
  -16.9000   -4.9587  -30.2324 N   0  0  0  0  0  0  0  0  0  0  0  0
  -18.2775   -4.9790  -29.9728 C   0  0  0  0  0  0  0  0  0  0  0  0
  -18.5172   -4.5388  -28.5213 C   0  0  0  0  0  0  0  0  0  0  0  0
  -16.3597   -4.0025  -31.1094 C   0  0  0  0  0  0  0  0  0  0  0  0
  -15.5216   -3.0146  -30.2921 C   0  0  0  0  0  0  0  0  0  0  0  0
  -14.9818   -2.0322  -31.1619 O   0  0  0  0  0  0  0  0  0  0  0  0
  -15.8283   -1.1793  -31.8102 C   0  0  0  0  0  0  0  0  0  0  0  0
  -17.0707   -1.3159  -31.5717 O   0  0  0  0  0  0  0  0  0  0  0  0
  -15.3905   -0.1330  -32.7577 C   0  0  0  0  0  0  0  0  0  0  0  0
  -14.4897   -0.7732  -33.8295 C   0  0  0  0  0  0  0  0  0  0  0  0
  -14.6213    0.9060  -32.0766 C   0  0  0  0  0  0  0  0  0  0  0  0
  -14.8062    2.2546  -32.3249 C   0  0  0  0  0  0  0  0  0  0  0  0
  -14.0524    3.1901  -31.6725 C   0  0  0  0  0  0  0  0  0  0  0  0
  -13.0840    2.8430  -30.7466 C   0  0  0  0  0  0  0  0  0  0  0  0
  -12.8805    1.5144  -30.4830 C   0  0  0  0  0  0  0  0  0  0  0  0
  -13.6550    0.5629  -31.1555 C   0  0  0  0  0  0  0  0  0  0  0  0
  -16.6318    0.3842  -33.3866 C   0  0  0  0  0  0  0  0  0  0  0  0
  -17.4810    1.1753  -32.6612 C   0  0  0  0  0  0  0  0  0  0  0  0
  -18.6424    1.6116  -33.2779 C   0  0  0  0  0  0  0  0  0  0  0  0
  -18.9520    1.2730  -34.5779 C   0  0  0  0  0  0  0  0  0  0  0  0
  -18.0954    0.4786  -35.3046 C   0  0  0  0  0  0  0  0  0  0  0  0
  -16.9323    0.0464  -34.6732 C   0  0  0  0  0  0  0  0  0  0  0  0
  -16.2383   -2.2744  -31.3349 Cl  0  0  0  0  0  0  0  0  0  0  0  0
  1  2  1  0
  2  3  1  0
  3  4  1  0
  4  5  1  0
  3  6  1  0
  6  7  1  0
  7  8  1  0
  8  9  1  0
  9 10  2  0
  9 11  1  0
 11 12  1  0
 11 13  1  0
 13 14  2  0
 14 15  1  0
 15 16  2  0
 16 17  1  0
 17 18  2  0
 11 19  1  0
 19 20  2  0
 20 21  1  0
 21 22  2  0
 22 23  1  0
 23 24  2  0
 18 13  1  0
 24 19  1  0
M  END
$$$$
