
     RDKit          3D

 26 28  0  0  0  0  0  0  0  0999 V2000
  -21.2374   35.4315  -21.6375 C   0  0  0  0  0  0  0  0  0  0  0  0
  -20.0079   34.6012  -21.5909 C   0  0  0  0  0  0  0  0  0  0  0  0
  -18.7661   35.2215  -21.1228 C   0  0  0  0  0  0  0  0  0  0  0  0
  -17.7249   36.1029  -22.1848 S   0  0  0  0  0  6  0  0  0  0  0  0
  -17.4893   35.1526  -23.4001 O   0  0  0  0  0  0  0  0  0  0  0  0
  -16.3082   36.2159  -21.5825 O   0  0  0  0  0  0  0  0  0  0  0  0
  -18.1239   37.5850  -22.7801 N   0  0  0  0  0  0  0  0  0  0  0  0
  -18.2125   38.6922  -21.9191 C   0  0  0  0  0  0  0  0  0  0  0  0
  -17.5645   39.9464  -22.5782 C   0  0  0  0  0  0  0  0  0  0  0  0
  -17.9335   39.9641  -24.0402 C   0  0  0  0  0  0  0  0  0  0  0  0
  -18.1521   41.3002  -24.4061 O   0  0  0  0  0  0  0  0  0  0  0  0
  -17.9324   42.3693  -23.5331 C   0  0  0  0  0  0  0  0  0  0  0  0
  -17.1419   42.2033  -22.4159 C   0  0  0  0  0  0  0  0  0  0  0  0
  -16.8983   43.2370  -21.5245 C   0  0  0  0  0  0  0  0  0  0  0  0
  -17.4583   44.4799  -21.7479 C   0  0  0  0  0  0  0  0  0  0  0  0
  -17.1916   45.8328  -20.6602 Cl  0  0  0  0  0  0  0  0  0  0  0  0
  -18.2441   44.6090  -22.8765 C   0  0  0  0  0  0  0  0  0  0  0  0
  -18.4666   43.5876  -23.7299 N   0  0  0  0  0  0  0  0  0  0  0  0
  -19.2201   39.2058  -24.2263 C   0  0  0  0  0  0  0  0  0  0  0  0
  -19.0178   37.7145  -23.8737 C   0  0  0  0  0  0  0  0  0  0  0  0
  -19.7581   34.1617  -22.9828 N   0  0  0  0  0  0  0  0  0  0  0  0
  -19.1865   32.8732  -22.9508 C   0  0  0  0  0  0  0  0  0  0  0  0
  -18.5171   32.3359  -23.8846 O   0  0  0  0  0  0  0  0  0  0  0  0
  -19.5026   32.3092  -21.6930 N   0  0  0  0  0  0  0  0  0  0  0  0
  -20.2637   33.2605  -20.9734 C   0  0  0  0  0  0  0  0  0  0  0  0
  -21.0014   32.9620  -20.0000 O   0  0  0  0  0  0  0  0  0  0  0  0
  1  2  1  0
  2  3  1  0
  3  4  1  0
  4  5  2  0
  4  6  2  0
  4  7  1  0
  7  8  1  0
  8  9  1  0
  9 10  1  0
 10 11  1  0
 11 12  1  0
 12 13  2  0
 13 14  1  0
 14 15  2  0
 15 16  1  0
 15 17  1  0
 17 18  2  0
 10 19  1  0
 19 20  1  0
  2 21  1  0
 21 22  1  0
 22 23  2  0
 22 24  1  0
 24 25  1  0
 25 26  2  0
 25  2  1  0
 20  7  1  0
 18 12  1  0
M  END
$$$$
