
     RDKit          3D

 26 29  0  0  0  0  0  0  0  0999 V2000
  -28.3579   22.9561  -25.1804 N   0  0  0  0  0  0  0  0  0  0  0  0
  -28.9596   22.6309  -26.1829 C   0  0  0  0  0  0  0  0  0  0  0  0
  -29.6645   22.2579  -27.3267 C   0  0  0  0  0  0  0  0  0  0  0  0
  -29.0093   22.7455  -28.6078 C   0  0  0  0  0  0  0  0  0  0  0  0
  -29.3637   23.6131  -29.3559 O   0  0  0  0  0  0  0  0  0  0  0  0
  -27.7704   21.9818  -28.9043 N   0  0  0  0  0  0  0  0  0  0  0  0
  -27.6600   20.6226  -28.4679 C   0  0  0  0  0  0  0  0  0  0  0  0
  -26.4101   19.4553  -28.7082 S   0  0  0  0  0  0  0  0  0  0  0  0
  -27.2378   18.0816  -27.8542 C   0  0  0  0  0  0  0  0  0  0  0  0
  -28.4103   18.6626  -27.4620 C   0  0  0  0  0  0  0  0  0  0  0  0
  -29.4139   17.8054  -26.6826 C   0  0  0  0  0  0  0  0  0  0  0  0
  -30.2776   17.0226  -27.3837 C   0  0  0  0  0  0  0  0  0  0  0  0
  -31.1548   16.2157  -26.6913 C   0  0  0  0  0  0  0  0  0  0  0  0
  -31.1342   16.2191  -25.2643 C   0  0  0  0  0  0  0  0  0  0  0  0
  -31.9949   15.1977  -24.5871 C   0  0  0  0  0  0  0  0  0  0  0  0
  -33.0026   15.6777  -23.7738 C   0  0  0  0  0  0  0  0  0  0  0  0
  -33.8406   14.8458  -23.1237 C   0  0  0  0  0  0  0  0  0  0  0  0
  -33.6374   13.4845  -23.3102 C   0  0  0  0  0  0  0  0  0  0  0  0
  -32.6537   13.0191  -24.1075 C   0  0  0  0  0  0  0  0  0  0  0  0
  -31.7429   13.8882  -24.8130 C   0  0  0  0  0  0  0  0  0  0  0  0
  -30.7811   13.3047  -25.5944 O   0  0  0  0  0  0  0  0  0  0  0  0
  -30.2660   17.0192  -24.6323 C   0  0  0  0  0  0  0  0  0  0  0  0
  -29.3619   17.8533  -25.3354 C   0  0  0  0  0  0  0  0  0  0  0  0
  -28.6530   19.9506  -27.7640 C   0  0  0  0  0  0  0  0  0  0  0  0
  -29.8048   20.7920  -27.5451 C   0  0  0  0  0  0  0  0  0  0  0  0
  -31.0201   20.3299  -27.5372 O   0  0  0  0  0  0  0  0  0  0  0  0
  1  2  3  0
  2  3  1  0
  3  4  1  0
  4  5  2  0
  4  6  1  0
  6  7  1  0
  7  8  1  0
  8  9  1  0
  9 10  2  0
 10 11  1  0
 11 12  2  0
 12 13  1  0
 13 14  2  0
 14 15  1  0
 15 16  2  0
 16 17  1  0
 17 18  2  0
 18 19  1  0
 19 20  2  0
 20 21  1  0
 14 22  1  0
 22 23  2  0
 10 24  1  0
 24 25  1  0
 25 26  2  0
 25  3  1  0
 24  7  2  0
 23 11  1  0
 20 15  1  0
M  END
$$$$
