
     RDKit          3D

 24 26  0  0  0  0  0  0  0  0999 V2000
  -21.2692   38.3422  -24.2818 C   0  0  0  0  0  0  0  0  0  0  0  0
  -20.0662   38.6568  -23.5533 N   0  0  0  0  0  0  0  0  0  0  0  0
  -19.5527   39.8564  -23.4578 N   0  0  0  0  0  0  0  0  0  0  0  0
  -18.4191   40.1610  -22.7730 C   0  0  0  0  0  0  0  0  0  0  0  0
  -17.9502   41.5407  -22.7432 C   0  0  0  0  0  0  0  0  0  0  0  0
  -16.6853   41.8211  -22.2841 C   0  0  0  0  0  0  0  0  0  0  0  0
  -16.2556   43.1540  -22.2644 C   0  0  0  0  0  0  0  0  0  0  0  0
  -17.0883   44.1633  -22.6980 C   0  0  0  0  0  0  0  0  0  0  0  0
  -16.6434   45.5984  -22.6835 C   0  0  0  0  0  0  0  0  0  0  0  0
  -17.4171   46.3756  -23.5155 F   0  0  0  0  0  0  0  0  0  0  0  0
  -16.7267   46.1099  -21.4075 F   0  0  0  0  0  0  0  0  0  0  0  0
  -15.3009   45.6535  -23.0625 F   0  0  0  0  0  0  0  0  0  0  0  0
  -18.3684   43.8637  -23.1608 C   0  0  0  0  0  0  0  0  0  0  0  0
  -18.7981   42.5349  -23.1810 C   0  0  0  0  0  0  0  0  0  0  0  0
  -17.7484   39.1823  -22.1335 N   0  0  0  0  0  0  0  0  0  0  0  0
  -18.2052   37.9259  -22.1802 C   0  0  0  0  0  0  0  0  0  0  0  0
  -17.5567   36.8992  -21.5457 C   0  0  0  0  0  0  0  0  0  0  0  0
  -16.5133   37.1493  -20.9092 O   0  0  0  0  0  0  0  0  0  0  0  0
  -18.0916   35.6729  -21.6499 N   0  0  0  0  0  0  0  0  0  0  0  0
  -17.3886   34.5909  -20.9683 C   0  0  0  0  0  0  0  0  0  0  0  0
  -19.2192   35.4219  -22.3416 C   0  0  0  0  0  0  0  0  0  0  0  0
  -19.6295   34.2113  -22.3670 O   0  0  0  0  0  0  0  0  0  0  0  0
  -19.9019   36.3851  -22.9859 N   0  0  0  0  0  0  0  0  0  0  0  0
  -19.4245   37.6533  -22.9279 C   0  0  0  0  0  0  0  0  0  0  0  0
  1  2  1  0
  2  3  1  0
  3  4  2  0
  4  5  1  0
  5  6  2  0
  6  7  1  0
  7  8  2  0
  8  9  1  0
  9 10  1  0
  9 11  1  0
  9 12  1  0
  8 13  1  0
 13 14  2  0
  4 15  1  0
 15 16  2  0
 16 17  1  0
 17 18  2  0
 17 19  1  0
 19 20  1  0
 19 21  1  0
 21 22  2  0
 21 23  1  0
 23 24  2  0
 24  2  1  0
 14  5  1  0
 24 16  1  0
M  END
$$$$
