
     RDKit          3D

 17 18  0  0  0  0  0  0  0  0999 V2000
    2.7636   15.0132  -18.5983 C   0  0  0  0  0  0  0  0  0  0  0  0
    1.4769   14.7997  -17.8186 C   0  0  0  0  0  0  0  0  0  0  0  0
    1.8780   14.5708  -16.3401 C   0  0  0  0  0  0  0  0  0  0  0  0
    0.7874   13.6220  -18.2177 N   0  0  0  0  0  0  0  0  0  0  0  0
   -0.4332   13.5761  -18.5748 C   0  0  0  0  0  0  0  0  0  0  0  0
   -0.9182   12.2637  -18.9386 N   0  0  0  0  0  0  0  0  0  0  0  0
   -1.2873   14.7097  -18.6249 N   0  0  0  0  0  0  0  0  0  0  0  0
   -0.7147   15.8253  -18.2699 C   0  0  0  0  0  0  0  0  0  0  0  0
   -1.4665   17.0530  -18.2746 N   0  0  0  0  0  0  0  0  0  0  0  0
    0.6254   15.9473  -17.8656 N   0  0  0  0  0  0  0  0  0  0  0  0
    1.1505   17.2362  -17.4944 C   0  0  0  0  0  0  0  0  0  0  0  0
    1.9162   17.9055  -18.4415 C   0  0  0  0  0  0  0  0  0  0  0  0
    2.4636   19.1399  -18.1889 C   0  0  0  0  0  0  0  0  0  0  0  0
    2.2404   19.7148  -16.9655 C   0  0  0  0  0  0  0  0  0  0  0  0
    1.4848   19.0739  -16.0066 C   0  0  0  0  0  0  0  0  0  0  0  0
    1.1880   19.7993  -14.4280 Cl  0  0  0  0  0  0  0  0  0  0  0  0
    0.9521   17.8375  -16.2959 C   0  0  0  0  0  0  0  0  0  0  0  0
  1  2  1  0
  2  3  1  0
  2  4  1  0
  4  5  2  0
  5  6  1  0
  5  7  1  0
  7  8  2  0
  8  9  1  0
  8 10  1  0
 10 11  1  0
 11 12  2  0
 12 13  1  0
 13 14  2  0
 14 15  1  0
 15 16  1  0
 15 17  2  0
 10  2  1  0
 17 11  1  0
M  END
$$$$
