
     RDKit          3D

 31 35  0  0  0  0  0  0  0  0999 V2000
  -25.4288   17.9570  -27.8101 C   0  0  0  0  0  0  0  0  0  0  0  0
  -26.1358   19.2573  -27.5834 C   0  0  0  0  0  0  0  0  0  0  0  0
  -27.5221   18.9617  -27.0534 C   0  0  2  0  0  0  0  0  0  0  0  0
  -28.0580   20.0640  -26.2949 N   0  0  0  0  0  0  0  0  0  0  0  0
  -29.0051   21.0069  -26.7930 C   0  0  0  0  0  0  0  0  0  0  0  0
  -29.7050   21.8159  -25.9936 N   0  0  0  0  0  0  0  0  0  0  0  0
  -30.5726   22.6828  -26.5161 C   0  0  0  0  0  0  0  0  0  0  0  0
  -30.7620   22.7621  -27.8542 N   0  0  0  0  0  0  0  0  0  0  0  0
  -30.0903   21.9784  -28.7020 C   0  0  0  0  0  0  0  0  0  0  0  0
  -30.0889   21.8560  -30.0488 N   0  0  0  0  0  0  0  0  0  0  0  0
  -29.2010   20.8922  -30.3661 C   0  0  0  0  0  0  0  0  0  0  0  0
  -28.6718   20.4377  -29.2195 N   0  0  0  0  0  0  0  0  0  0  0  0
  -29.1983   21.0885  -28.1490 C   0  0  0  0  0  0  0  0  0  0  0  0
  -27.6110   17.7393  -26.2457 C   0  0  0  0  0  0  0  0  0  0  0  0
  -27.0824   17.7089  -24.9952 N   0  0  0  0  0  0  0  0  0  0  0  0
  -27.1297   16.6254  -24.2043 C   0  0  0  0  0  0  0  0  0  0  0  0
  -26.5784   16.6248  -22.9259 C   0  0  0  0  0  0  0  0  0  0  0  0
  -26.6520   15.4827  -22.1473 C   0  0  0  0  0  0  0  0  0  0  0  0
  -27.2766   14.3638  -22.6653 C   0  0  0  0  0  0  0  0  0  0  0  0
  -27.8143   14.3912  -23.9344 C   0  0  0  0  0  0  0  0  0  0  0  0
  -28.4134   13.2723  -24.3930 F   0  0  0  0  0  0  0  0  0  0  0  0
  -27.7527   15.5131  -24.7239 C   0  0  0  0  0  0  0  0  0  0  0  0
  -28.2893   15.5459  -25.9949 C   0  0  0  0  0  0  0  0  0  0  0  0
  -28.8678   14.5350  -26.4956 O   0  0  0  0  0  0  0  0  0  0  0  0
  -28.2261   16.6508  -26.7665 N   0  0  0  0  0  0  0  0  0  0  0  0
  -28.7560   16.7536  -28.0753 C   0  0  0  0  0  0  0  0  0  0  0  0
  -30.0598   17.2244  -28.2699 C   0  0  0  0  0  0  0  0  0  0  0  0
  -30.5451   17.3106  -29.5585 C   0  0  0  0  0  0  0  0  0  0  0  0
  -29.7929   16.9496  -30.6674 C   0  0  0  0  0  0  0  0  0  0  0  0
  -28.5089   16.4856  -30.4810 C   0  0  0  0  0  0  0  0  0  0  0  0
  -28.0311   16.4020  -29.1951 C   0  0  0  0  0  0  0  0  0  0  0  0
  1  2  1  0
  3  2  1  1
  3  4  1  0
  4  5  1  0
  5  6  2  0
  6  7  1  0
  7  8  2  0
  8  9  1  0
  9 10  1  0
 10 11  1  0
 11 12  2  0
 12 13  1  0
  3 14  1  0
 14 15  2  0
 15 16  1  0
 16 17  2  0
 17 18  1  0
 18 19  2  0
 19 20  1  0
 20 21  1  0
 20 22  2  0
 22 23  1  0
 23 24  2  0
 23 25  1  0
 25 26  1  0
 26 27  2  0
 27 28  1  0
 28 29  2  0
 29 30  1  0
 30 31  2  0
 13  5  1  0
 25 14  1  0
 31 26  1  0
 13  9  2  0
 22 16  1  0
M  END
$$$$
