
     RDKit          3D

 39 43  0  0  0  0  0  0  0  0999 V2000
  -23.8095   21.8888  -23.2759 C   0  0  0  0  0  0  0  0  0  0  0  0
  -24.7453   21.3098  -24.3141 C   0  0  0  0  0  0  0  0  0  0  0  0
  -24.1189   20.1083  -24.9919 C   0  0  2  0  0  0  0  0  0  0  0  0
  -23.4774   20.4927  -26.3097 C   0  0  0  0  0  0  0  0  0  0  0  0
  -25.1136   19.0608  -25.2146 N   0  0  0  0  0  0  0  0  0  0  0  0
  -25.3166   17.9436  -24.5200 C   0  0  0  0  0  0  0  0  0  0  0  0
  -26.3769   17.2028  -25.0536 C   0  0  0  0  0  0  0  0  0  0  0  0
  -26.8650   15.9096  -24.5049 C   0  0  0  0  0  0  0  0  0  0  0  0
  -26.8343   17.9188  -26.1304 C   0  0  0  0  0  0  0  0  0  0  0  0
  -27.8356   17.6730  -27.0006 C   0  0  0  0  0  0  0  0  0  0  0  0
  -28.7228   16.5284  -27.0510 C   0  0  0  0  0  0  0  0  0  0  0  0
  -28.5638   15.7318  -28.0206 O   0  0  0  0  0  0  0  0  0  0  0  0
  -29.7305   16.1874  -26.1308 N   0  0  0  0  0  0  0  0  0  0  0  0
  -30.5585   15.0869  -25.9934 C   0  0  0  0  0  0  0  0  0  0  0  0
  -31.9769   15.0604  -25.7350 C   0  0  0  0  0  0  0  0  0  0  0  0
  -32.3756   13.9671  -24.9117 C   0  0  0  0  0  0  0  0  0  0  0  0
  -31.3721   12.9874  -24.4101 C   0  0  0  0  0  0  0  0  0  0  0  0
  -33.6735   13.7772  -24.5567 C   0  0  0  0  0  0  0  0  0  0  0  0
  -34.6517   14.6406  -24.9841 C   0  0  0  0  0  0  0  0  0  0  0  0
  -36.0932   14.4594  -24.6018 C   0  0  0  0  0  0  0  0  0  0  0  0
  -34.2533   15.6597  -25.7559 N   0  0  0  0  0  0  0  0  0  0  0  0
  -32.9734   15.8765  -26.1265 C   0  0  0  0  0  0  0  0  0  0  0  0
  -32.7289   16.8610  -26.8480 O   0  0  0  0  0  0  0  0  0  0  0  0
  -28.0550   18.6420  -28.0239 C   0  0  0  0  0  0  0  0  0  0  0  0
  -27.3030   19.7648  -28.1328 C   0  0  0  0  0  0  0  0  0  0  0  0
  -27.5563   20.7396  -29.2116 C   0  0  0  0  0  0  0  0  0  0  0  0
  -26.9082   21.9454  -29.2963 C   0  0  0  0  0  0  0  0  0  0  0  0
  -27.2098   22.8209  -30.3487 C   0  0  0  0  0  0  0  0  0  0  0  0
  -28.1387   22.5206  -31.3129 C   0  0  0  0  0  0  0  0  0  0  0  0
  -28.4685   23.3912  -32.3878 N   0  0  0  0  0  0  0  0  0  0  0  0
  -27.6488   24.4947  -32.7448 C   0  0  0  0  0  0  0  0  0  0  0  0
  -28.3815   25.6569  -33.3738 C   0  0  0  0  0  0  0  0  0  0  0  0
  -29.5059   25.2952  -34.1723 N   0  0  0  0  0  0  0  0  0  0  0  0
  -29.5650   23.8835  -34.4759 C   0  0  0  0  0  0  0  0  0  0  0  0
  -29.6903   23.1537  -33.1626 C   0  0  0  0  0  0  0  0  0  0  0  0
  -28.7579   21.3121  -31.1890 N   0  0  0  0  0  0  0  0  0  0  0  0
  -28.4898   20.4609  -30.1983 C   0  0  0  0  0  0  0  0  0  0  0  0
  -26.2927   19.9692  -27.2184 C   0  0  0  0  0  0  0  0  0  0  0  0
  -26.0301   19.0660  -26.2043 C   0  0  0  0  0  0  0  0  0  0  0  0
  1  2  1  0
  2  3  1  0
  3  4  1  6
  3  5  1  0
  5  6  1  0
  6  7  2  0
  7  8  1  0
  7  9  1  0
  9 10  2  0
 10 11  1  0
 11 12  2  0
 11 13  1  0
 13 14  1  0
 14 15  1  0
 15 16  2  0
 16 17  1  0
 16 18  1  0
 18 19  2  0
 19 20  1  0
 19 21  1  0
 21 22  1  0
 22 23  2  0
 10 24  1  0
 24 25  2  0
 25 26  1  0
 26 27  2  0
 27 28  1  0
 28 29  2  0
 29 30  1  0
 30 31  1  0
 31 32  1  0
 32 33  1  0
 33 34  1  0
 34 35  1  0
 29 36  1  0
 36 37  2  0
 25 38  1  0
 38 39  2  0
 39  5  1  0
 39  9  1  0
 22 15  1  0
 37 26  1  0
 35 30  1  0
M  END
$$$$
