
     RDKit          3D

 28 31  0  0  0  0  0  0  0  0999 V2000
  -25.1291   14.5194  -33.9772 C   0  0  0  0  0  0  0  0  0  0  0  0
  -24.0491   15.1013  -33.2318 N   0  0  0  0  0  0  0  0  0  0  0  0
  -23.7144   16.4287  -33.6299 C   0  0  0  0  0  0  0  0  0  0  0  0
  -22.8044   16.5153  -34.8391 C   0  0  0  0  0  0  0  0  0  0  0  0
  -21.7208   15.5269  -34.7711 N   0  0  0  0  0  0  0  0  0  0  0  0
  -20.3564   15.8924  -34.9910 C   0  0  0  0  0  0  0  0  0  0  0  0
  -19.3334   14.9723  -34.8361 C   0  0  0  0  0  0  0  0  0  0  0  0
  -18.0214   15.3287  -35.0670 C   0  0  0  0  0  0  0  0  0  0  0  0
  -17.6521   16.5952  -35.4579 C   0  0  0  0  0  0  0  0  0  0  0  0
  -16.2636   16.9494  -35.6955 C   0  0  0  0  0  0  0  0  0  0  0  0
  -15.8131   17.1348  -36.9878 C   0  0  0  0  0  0  0  0  0  0  0  0
  -14.4866   17.4688  -37.1776 C   0  0  0  0  0  0  0  0  0  0  0  0
  -13.6635   17.6073  -36.1239 N   0  0  0  0  0  0  0  0  0  0  0  0
  -14.1104   17.4252  -34.8724 C   0  0  0  0  0  0  0  0  0  0  0  0
  -15.4236   17.0907  -34.6160 C   0  0  0  0  0  0  0  0  0  0  0  0
  -15.9766   16.8813  -33.2867 C   0  0  0  0  0  0  0  0  0  0  0  0
  -16.7890   17.8121  -32.6692 C   0  0  0  0  0  0  0  0  0  0  0  0
  -17.3132   17.6108  -31.4059 C   0  0  0  0  0  0  0  0  0  0  0  0
  -18.1090   18.5312  -30.8083 F   0  0  0  0  0  0  0  0  0  0  0  0
  -17.0381   16.4509  -30.7039 C   0  0  0  0  0  0  0  0  0  0  0  0
  -17.5456   16.2116  -29.4328 O   0  0  0  0  0  0  0  0  0  0  0  0
  -16.2264   15.5231  -31.3235 C   0  0  0  0  0  0  0  0  0  0  0  0
  -15.9524   14.3792  -30.6374 F   0  0  0  0  0  0  0  0  0  0  0  0
  -15.7027   15.7246  -32.5860 C   0  0  0  0  0  0  0  0  0  0  0  0
  -18.6730   17.5047  -35.6100 C   0  0  0  0  0  0  0  0  0  0  0  0
  -19.9981   17.1571  -35.3804 C   0  0  0  0  0  0  0  0  0  0  0  0
  -22.1585   14.1779  -34.4851 C   0  0  0  0  0  0  0  0  0  0  0  0
  -22.9488   14.1730  -33.1945 C   0  0  0  0  0  0  0  0  0  0  0  0
  1  2  1  0
  2  3  1  0
  3  4  1  0
  4  5  1  0
  5  6  1  0
  6  7  2  0
  7  8  1  0
  8  9  2  0
  9 10  1  0
 10 11  2  0
 11 12  1  0
 12 13  2  0
 13 14  1  0
 14 15  2  0
 15 16  1  0
 16 17  2  0
 17 18  1  0
 18 19  1  0
 18 20  2  0
 20 21  1  0
 20 22  1  0
 22 23  1  0
 22 24  2  0
  9 25  1  0
 25 26  2  0
  5 27  1  0
 27 28  1  0
 28  2  1  0
 26  6  1  0
 15 10  1  0
 24 16  1  0
M  END
$$$$
