
     RDKit          3D

 33 37  0  0  0  0  0  0  0  0999 V2000
  -15.4011   47.5487  -14.0918 C   0  0  0  0  0  0  0  0  0  0  0  0
  -14.0389   46.9303  -14.2572 C   0  0  0  0  0  0  0  0  0  0  0  0
  -13.0618   47.9630  -14.5230 N   0  0  0  0  0  0  0  0  0  0  0  0
  -13.0899   48.4123  -15.8909 C   0  0  0  0  0  0  0  0  0  0  0  0
  -12.3676   47.4559  -16.8184 C   0  0  0  0  0  0  0  0  0  0  0  0
  -11.4086   46.6655  -16.1719 N   0  0  0  0  0  0  0  0  0  0  0  0
  -10.9460   45.4831  -16.7599 C   0  0  0  0  0  0  0  0  0  0  0  0
  -12.0906   44.7449  -17.3667 C   0  0  0  0  0  0  0  0  0  0  0  0
  -12.4441   45.0064  -18.6730 C   0  0  0  0  0  0  0  0  0  0  0  0
  -13.4995   44.3565  -19.2948 C   0  0  0  0  0  0  0  0  0  0  0  0
  -14.2129   43.4238  -18.5843 C   0  0  0  0  0  0  0  0  0  0  0  0
  -15.3183   42.7310  -19.2023 C   0  0  0  0  0  0  0  0  0  0  0  0
  -15.6937   42.8551  -20.5201 C   0  0  0  0  0  0  0  0  0  0  0  0
  -16.7972   42.0182  -20.6969 C   0  0  0  0  0  0  0  0  0  0  0  0
  -17.5533   41.7669  -21.8105 C   0  0  0  0  0  0  0  0  0  0  0  0
  -17.2400   42.4144  -23.0234 N   0  0  0  0  0  0  0  0  0  0  0  0
  -18.0278   42.1302  -24.2151 C   0  0  2  0  0  0  0  0  0  0  0  0
  -17.1678   42.2372  -25.4493 C   0  0  0  0  0  0  0  0  0  0  0  0
  -19.1221   43.1461  -24.2275 C   0  0  0  0  0  0  0  0  0  0  0  0
  -20.2786   42.9648  -24.9400 C   0  0  0  0  0  0  0  0  0  0  0  0
  -21.3000   43.9045  -24.9569 C   0  0  0  0  0  0  0  0  0  0  0  0
  -21.1487   45.0647  -24.2310 C   0  0  0  0  0  0  0  0  0  0  0  0
  -19.9806   45.2701  -23.4989 C   0  0  0  0  0  0  0  0  0  0  0  0
  -18.9934   44.3125  -23.5100 C   0  0  0  0  0  0  0  0  0  0  0  0
  -18.5723   40.8976  -21.6783 N   0  0  0  0  0  0  0  0  0  0  0  0
  -18.8222   40.3042  -20.4759 C   0  0  0  0  0  0  0  0  0  0  0  0
  -18.0751   40.5579  -19.3917 N   0  0  0  0  0  0  0  0  0  0  0  0
  -17.0572   41.4099  -19.4729 C   0  0  0  0  0  0  0  0  0  0  0  0
  -16.1516   41.8563  -18.5886 N   0  0  0  0  0  0  0  0  0  0  0  0
  -13.8724   43.1542  -17.2854 C   0  0  0  0  0  0  0  0  0  0  0  0
  -12.8075   43.8081  -16.6540 C   0  0  0  0  0  0  0  0  0  0  0  0
  -10.7779   47.1362  -15.0093 C   0  0  0  0  0  0  0  0  0  0  0  0
  -11.7630   47.6611  -14.0089 C   0  0  0  0  0  0  0  0  0  0  0  0
  1  2  1  0
  2  3  1  0
  3  4  1  0
  4  5  1  0
  5  6  1  0
  6  7  1  0
  7  8  1  0
  8  9  2  0
  9 10  1  0
 10 11  2  0
 11 12  1  0
 12 13  2  0
 13 14  1  0
 14 15  2  0
 15 16  1  0
 16 17  1  0
 17 18  1  6
 17 19  1  0
 19 20  2  0
 20 21  1  0
 21 22  2  0
 22 23  1  0
 23 24  2  0
 15 25  1  0
 25 26  2  0
 26 27  1  0
 27 28  2  0
 28 29  1  0
 11 30  1  0
 30 31  2  0
  6 32  1  0
 32 33  1  0
 33  3  1  0
 31  8  1  0
 29 12  1  0
 28 14  1  0
 24 19  1  0
M  END
$$$$
