
     RDKit          3D

 21 23  0  0  0  0  0  0  0  0999 V2000
  -12.3035   -3.0728  -34.2306 C   0  0  0  0  0  0  0  0  0  0  0  0
  -13.1670   -2.5141  -33.0903 C   0  0  0  0  0  0  0  0  0  0  0  0
  -13.4143   -3.5921  -32.0816 C   0  0  0  0  0  0  0  0  0  0  0  0
  -12.4196   -1.4578  -32.5193 O   0  0  0  0  0  0  0  0  0  0  0  0
  -13.0330   -0.2931  -32.0898 C   0  0  0  0  0  0  0  0  0  0  0  0
  -12.1849    0.6697  -31.5297 C   0  0  0  0  0  0  0  0  0  0  0  0
  -12.6992    1.8537  -31.0766 C   0  0  0  0  0  0  0  0  0  0  0  0
  -14.0364    2.0926  -31.1718 C   0  0  0  0  0  0  0  0  0  0  0  0
  -14.5773    3.3320  -30.6978 C   0  0  0  0  0  0  0  0  0  0  0  0
  -15.0119    4.3264  -30.2960 N   0  0  0  0  0  0  0  0  0  0  0  0
  -14.8676    1.1293  -31.7296 C   0  0  0  0  0  0  0  0  0  0  0  0
  -14.3868   -0.0714  -32.1953 C   0  0  0  0  0  0  0  0  0  0  0  0
  -15.2309   -1.1122  -32.7898 C   0  0  1  0  0  0  0  0  0  0  0  0
  -16.3168   -0.5591  -33.5922 N   0  0  0  0  0  0  0  0  0  0  0  0
  -16.1952   -0.0671  -34.9498 C   0  0  0  0  0  0  0  0  0  0  0  0
  -17.5756    0.1075  -35.4837 C   0  0  0  0  0  0  0  0  0  0  0  0
  -18.5511   -0.2167  -34.4035 C   0  0  0  0  0  0  0  0  0  0  0  0
  -17.6787   -0.3950  -33.2140 C   0  0  0  0  0  0  0  0  0  0  0  0
  -18.1357   -0.3934  -32.0414 O   0  0  0  0  0  0  0  0  0  0  0  0
  -14.4084   -1.9752  -33.7156 C   0  0  2  0  0  0  0  0  0  0  0  0
  -15.2066   -3.0493  -34.0948 O   0  0  0  0  0  0  0  0  0  0  0  0
  1  2  1  0
  2  3  1  0
  2  4  1  0
  4  5  1  0
  5  6  2  0
  6  7  1  0
  7  8  2  0
  8  9  1  0
  9 10  3  0
  8 11  1  0
 11 12  2  0
 12 13  1  0
 13 14  1  6
 14 15  1  0
 15 16  1  0
 16 17  1  0
 17 18  1  0
 18 19  2  0
 13 20  1  0
 20 21  1  1
 20  2  1  0
 12  5  1  0
 18 14  1  0
M  END
$$$$
