
     RDKit          3D

 18 19  0  0  0  0  0  0  0  0999 V2000
    1.9235   18.7489  -19.8626 Cl  0  0  0  0  0  0  0  0  0  0  0  0
    1.1091   20.7404  -21.9977 Cl  0  0  0  0  0  0  0  0  0  0  0  0
    0.4380   19.2978  -21.2728 C   0  0  0  0  0  0  0  0  0  0  0  0
   -0.9328   19.1528  -21.1710 C   0  0  0  0  0  0  0  0  0  0  0  0
   -1.4893   18.0315  -20.6069 C   0  0  0  0  0  0  0  0  0  0  0  0
   -0.6578   17.0453  -20.1402 C   0  0  0  0  0  0  0  0  0  0  0  0
    0.7090   17.1951  -20.2442 C   0  0  0  0  0  0  0  0  0  0  0  0
    1.3011   18.3215  -20.8116 C   0  0  0  0  0  0  0  0  0  0  0  0
    2.7725   18.4646  -20.9158 C   0  0  0  0  0  0  0  0  0  0  0  0
    3.3074   19.3700  -19.9403 N   0  0  0  0  0  0  0  0  0  0  0  0
    4.7504   19.4546  -20.1109 C   0  0  0  0  0  0  0  0  0  0  0  0
    5.4030   20.2449  -19.0304 C   0  0  0  0  0  0  0  0  0  0  0  0
    4.4796   20.6684  -17.9426 C   0  0  0  0  0  0  0  0  0  0  0  0
    4.5544   21.9203  -16.8072 S   0  0  0  0  0  0  0  0  0  0  0  0
    2.9809   21.5766  -15.9678 C   0  0  0  0  0  0  0  0  0  0  0  0
    2.5296   20.4737  -16.6824 C   0  0  0  0  0  0  0  0  0  0  0  0
    3.2948   20.0252  -17.6763 C   0  0  0  0  0  0  0  0  0  0  0  0
    3.0491   18.8527  -18.6083 C   0  0  0  0  0  0  0  0  0  0  0  0
  2  3  1  0
  3  4  2  0
  4  5  1  0
  5  6  2  0
  6  7  1  0
  7  8  2  0
  8  9  1  0
  9 10  1  0
 10 11  1  0
 11 12  1  0
 12 13  1  0
 13 14  1  0
 14 15  1  0
 15 16  2  0
 16 17  1  0
 17 18  1  0
  8  3  1  0
 18 10  1  0
 17 13  2  0
M  END
$$$$
