
     RDKit          3D

 39 36  0  0  0  0  0  0  0  0999 V2000
  -15.4999   15.9775  -31.2708 C   0  0  0  0  0  0  0  0  0  0  0  0
  -15.6201   16.5446  -32.6491 C   0  0  0  0  0  0  0  0  0  0  0  0
  -16.7863   17.3081  -32.9279 N   0  0  0  0  0  4  0  0  0  0  0  0
  -17.5115   17.4499  -31.6403 C   0  0  0  0  0  0  0  0  0  0  0  0
  -18.5423   18.5381  -31.7194 C   0  0  0  0  0  0  0  0  0  0  0  0
  -16.4310   18.6652  -33.3040 C   0  0  0  0  0  0  0  0  0  0  0  0
  -15.4383   19.2768  -32.3815 C   0  0  0  0  0  0  0  0  0  0  0  0
  -17.7069   16.7406  -33.8288 C   0  0  0  0  0  0  0  0  0  0  0  0
  -17.2168   15.9063  -34.9670 C   0  0  0  0  0  0  0  0  0  0  0  0
  -16.4264   16.3647  -35.8876 O   0  0  0  0  0  0  0  0  0  0  0  0
  -15.4787   16.8560  -36.6432 C   0  0  0  0  0  0  0  0  0  0  0  0
  -14.2573   17.2050  -36.0387 C   0  0  0  0  0  0  0  0  0  0  0  0
  -13.2369   17.7205  -36.7805 C   0  0  0  0  0  0  0  0  0  0  0  0
  -13.4214   17.8934  -38.1316 C   0  0  0  0  0  0  0  0  0  0  0  0
  -14.5694   17.5789  -38.7816 C   0  0  0  0  0  0  0  0  0  0  0  0
  -14.8152   17.7168  -40.1094 O   0  0  0  0  0  0  0  0  0  0  0  0
  -14.0332   18.1471  -41.1660 C   0  0  0  0  0  0  0  0  0  0  0  0
  -12.8799   17.2340  -41.3920 C   0  0  0  0  0  0  0  0  0  0  0  0
  -12.0060   17.6147  -42.4838 N   0  0  0  0  0  4  0  0  0  0  0  0
  -10.6203   17.2834  -42.1406 C   0  0  0  0  0  0  0  0  0  0  0  0
  -10.2166   17.7228  -40.7820 C   0  0  0  0  0  0  0  0  0  0  0  0
  -12.3272   16.8425  -43.6375 C   0  0  0  0  0  0  0  0  0  0  0  0
  -13.1620   17.4826  -44.6783 C   0  0  0  0  0  0  0  0  0  0  0  0
  -12.0565   19.0302  -42.6787 C   0  0  0  0  0  0  0  0  0  0  0  0
  -10.9890   19.5664  -43.6033 C   0  0  0  0  0  0  0  0  0  0  0  0
  -15.6106   17.0544  -38.0258 C   0  0  0  0  0  0  0  0  0  0  0  0
  -16.7983   16.7190  -38.6196 O   0  0  0  0  0  0  0  0  0  0  0  0
  -17.8913   17.5712  -38.8478 C   0  0  0  0  0  0  0  0  0  0  0  0
  -18.4352   18.1435  -37.5862 C   0  0  0  0  0  0  0  0  0  0  0  0
  -19.5530   19.0338  -37.7328 N   0  0  0  0  0  4  0  0  0  0  0  0
  -19.7180   19.5577  -39.0491 C   0  0  0  0  0  0  0  0  0  0  0  0
  -18.7829   20.6452  -39.4450 C   0  0  0  0  0  0  0  0  0  0  0  0
  -19.3164   20.1098  -36.7538 C   0  0  0  0  0  0  0  0  0  0  0  0
  -20.2593   21.2482  -36.8745 C   0  0  0  0  0  0  0  0  0  0  0  0
  -20.7510   18.3539  -37.3040 C   0  0  0  0  0  0  0  0  0  0  0  0
  -21.2144   17.2705  -38.2214 C   0  0  0  0  0  0  0  0  0  0  0  0
  -15.9143   18.0894  -37.6938 I   0  0  0  0  0 15  0  0  0  0  0  0
  -15.9143   18.0894  -37.6938 I   0  0  0  0  0 15  0  0  0  0  0  0
  -15.9143   18.0894  -37.6938 I   0  0  0  0  0 15  0  0  0  0  0  0
  1  2  1  0
  2  3  1  0
  3  4  1  0
  4  5  1  0
  3  6  1  0
  6  7  1  0
  3  8  1  0
  8  9  1  0
  9 10  1  0
 10 11  1  0
 11 12  2  0
 12 13  1  0
 13 14  2  0
 14 15  1  0
 15 16  1  0
 16 17  1  0
 17 18  1  0
 18 19  1  0
 19 20  1  0
 20 21  1  0
 19 22  1  0
 22 23  1  0
 19 24  1  0
 24 25  1  0
 15 26  2  0
 26 27  1  0
 27 28  1  0
 28 29  1  0
 29 30  1  0
 30 31  1  0
 31 32  1  0
 30 33  1  0
 33 34  1  0
 30 35  1  0
 35 36  1  0
 26 11  1  0
M  CHG  6   3   1  19   1  30   1  37  -1  38  -1  39  -1
M  END
$$$$
