
     RDKit          3D

 24 26  0  0  0  0  0  0  0  0999 V2000
  -16.8838   38.2149  -23.7414 C   0  0  0  0  0  0  0  0  0  0  0  0
  -16.6909   37.4506  -22.4563 C   0  0  0  0  0  0  0  0  0  0  0  0
  -17.9540   37.2916  -21.7626 N   0  0  0  0  0  0  0  0  0  0  0  0
  -18.4592   38.2370  -20.9234 C   0  0  0  0  0  0  0  0  0  0  0  0
  -17.7943   39.5255  -20.6533 C   0  0  0  0  0  0  0  0  0  0  0  0
  -18.3434   40.5720  -21.3440 O   0  0  0  0  0  0  0  0  0  0  0  0
  -18.3626   41.9024  -21.1281 C   0  0  0  0  0  0  0  0  0  0  0  0
  -18.2520   42.4990  -19.9005 C   0  0  0  0  0  0  0  0  0  0  0  0
  -18.2804   43.8888  -19.7450 C   0  0  0  0  0  0  0  0  0  0  0  0
  -18.4261   44.6577  -20.8810 C   0  0  0  0  0  0  0  0  0  0  0  0
  -18.5391   44.0583  -22.1229 C   0  0  0  0  0  0  0  0  0  0  0  0
  -18.6878   44.8239  -23.2817 C   0  0  0  0  0  0  0  0  0  0  0  0
  -18.8017   44.2380  -24.5271 C   0  0  0  0  0  0  0  0  0  0  0  0
  -18.7672   42.8544  -24.6249 C   0  0  0  0  0  0  0  0  0  0  0  0
  -18.6236   42.1278  -23.5038 N   0  0  0  0  0  0  0  0  0  0  0  0
  -18.5115   42.6987  -22.2797 C   0  0  0  0  0  0  0  0  0  0  0  0
  -19.6017   37.7281  -20.4949 N   0  0  0  0  0  0  0  0  0  0  0  0
  -19.8211   36.5368  -21.0206 N   0  0  0  0  0  0  0  0  0  0  0  0
  -18.7897   36.2412  -21.8269 C   0  0  0  0  0  0  0  0  0  0  0  0
  -18.5322   34.7838  -22.8082 S   0  0  0  0  0  0  0  0  0  0  0  0
  -18.9623   33.3562  -21.7422 C   0  0  0  0  0  0  0  0  0  0  0  0
  -20.4220   33.4461  -21.5102 C   0  0  0  0  0  0  0  0  0  0  0  0
  -21.1224   34.3212  -22.0696 O   0  0  0  0  0  0  0  0  0  0  0  0
  -21.0511   32.5530  -20.6583 O   0  0  0  0  0  0  0  0  0  0  0  0
  1  2  1  0
  2  3  1  0
  3  4  1  0
  4  5  1  0
  5  6  1  0
  6  7  1  0
  7  8  2  0
  8  9  1  0
  9 10  2  0
 10 11  1  0
 11 12  2  0
 12 13  1  0
 13 14  2  0
 14 15  1  0
 15 16  2  0
  4 17  2  0
 17 18  1  0
 18 19  2  0
 19 20  1  0
 20 21  1  0
 21 22  1  0
 22 23  2  0
 22 24  1  0
 19  3  1  0
 16  7  1  0
 16 11  1  0
M  END
$$$$
