
     RDKit          3D

 42 48  0  0  0  0  0  0  0  0999 V2000
   -9.3341   19.4503  -42.1192 O   0  0  0  0  0  0  0  0  0  0  0  0
  -10.5836   19.3231  -42.1230 C   0  0  0  0  0  0  0  0  0  0  0  0
  -11.2490   19.6342  -43.3107 O   0  0  0  0  0  0  0  0  0  0  0  0
  -11.3604   18.8835  -40.9991 C   0  0  0  0  0  0  0  0  0  0  0  0
  -10.7876   18.5025  -39.8050 C   0  0  0  0  0  0  0  0  0  0  0  0
  -11.4535   18.0670  -38.7029 C   0  0  0  0  0  0  0  0  0  0  0  0
  -10.7260   17.7335  -37.6215 F   0  0  0  0  0  0  0  0  0  0  0  0
  -12.8546   17.9882  -38.7562 C   0  0  0  0  0  0  0  0  0  0  0  0
  -13.6871   17.5938  -37.8246 N   0  0  0  0  0  0  0  0  0  0  0  0
  -14.8442   17.5116  -37.8392 C   0  0  0  0  0  0  0  0  0  0  0  0
  -15.8983   17.0949  -37.0004 N   0  0  0  0  0  0  0  0  0  0  0  0
  -16.9144   16.1257  -37.3462 C   0  0  1  0  0  0  0  0  0  0  0  0
  -16.7466   15.1895  -36.1298 C   0  0  0  0  0  0  0  0  0  0  0  0
  -16.2827   16.0713  -35.0097 C   0  0  0  0  0  0  0  0  0  0  0  0
  -16.1737   17.4728  -35.6638 C   0  0  2  0  0  0  0  0  0  0  0  0
  -17.5290   18.1137  -35.4299 C   0  0  0  0  0  0  0  0  0  0  0  0
  -18.6505   17.3098  -35.9632 C   0  0  2  0  0  0  0  0  0  0  0  0
  -19.1245   16.3242  -35.1409 O   0  0  0  0  0  0  0  0  0  0  0  0
  -19.7757   16.7758  -33.9912 C   0  0  0  0  0  0  0  0  0  0  0  0
  -21.1507   16.2803  -33.8470 C   0  0  0  0  0  0  0  0  0  0  0  0
  -22.3622   16.8736  -34.1492 C   0  0  0  0  0  0  0  0  0  0  0  0
  -22.5429   18.0875  -34.9499 C   0  0  0  0  0  0  0  0  0  0  0  0
  -22.2210   18.1244  -36.2849 C   0  0  0  0  0  0  0  0  0  0  0  0
  -22.4338   19.2453  -37.0901 C   0  0  0  0  0  0  0  0  0  0  0  0
  -22.9928   20.3770  -36.5418 C   0  0  0  0  0  0  0  0  0  0  0  0
  -23.3224   20.3490  -35.1942 C   0  0  0  0  0  0  0  0  0  0  0  0
  -23.1114   19.2378  -34.3926 C   0  0  0  0  0  0  0  0  0  0  0  0
  -23.4332   19.1856  -33.0514 O   0  0  0  0  0  0  0  0  0  0  0  0
  -22.7181   19.7652  -32.0076 C   0  0  0  0  0  0  0  0  0  0  0  0
  -21.5767   18.9946  -31.8056 F   0  0  0  0  0  0  0  0  0  0  0  0
  -23.5045   19.7319  -30.8639 F   0  0  0  0  0  0  0  0  0  0  0  0
  -22.3675   21.0727  -32.3143 F   0  0  0  0  0  0  0  0  0  0  0  0
  -23.3758   16.1058  -33.6542 N   0  0  0  0  0  0  0  0  0  0  0  0
  -22.8541   15.0926  -33.0804 O   0  0  0  0  0  0  0  0  0  0  0  0
  -21.5204   15.1305  -33.1585 C   0  0  0  0  0  0  0  0  0  0  0  0
  -20.6590   14.0800  -32.5796 C   0  0  0  0  0  0  0  0  0  0  0  0
  -21.0751   13.3656  -31.2876 C   0  0  0  0  0  0  0  0  0  0  0  0
  -21.1526   12.6902  -32.5993 C   0  0  0  0  0  0  0  0  0  0  0  0
  -18.2912   16.6715  -37.3086 C   0  0  0  0  0  0  0  0  0  0  0  0
  -15.1802   18.1187  -39.6066 S   0  0  0  0  0  0  0  0  0  0  0  0
  -13.4396   18.3608  -39.9255 C   0  0  0  0  0  0  0  0  0  0  0  0
  -12.7548   18.8044  -41.0488 C   0  0  0  0  0  0  0  0  0  0  0  0
  1  2  2  0
  2  3  1  0
  2  4  1  0
  4  5  2  0
  5  6  1  0
  6  7  1  0
  6  8  2  0
  8  9  1  0
  9 10  2  0
 10 11  1  0
 11 12  1  0
 12 13  1  1
 13 14  1  0
 15 14  1  1
 15 16  1  0
 16 17  1  0
 17 18  1  1
 18 19  1  0
 19 20  1  0
 20 21  1  0
 21 22  1  0
 22 23  2  0
 23 24  1  0
 24 25  2  0
 25 26  1  0
 26 27  2  0
 27 28  1  0
 28 29  1  0
 29 30  1  0
 29 31  1  0
 29 32  1  0
 21 33  2  0
 33 34  1  0
 34 35  1  0
 35 36  1  0
 36 37  1  0
 37 38  1  0
 17 39  1  0
 10 40  1  0
 40 41  1  0
 41 42  2  0
 42  4  1  0
 41  8  1  0
 15 11  1  0
 35 20  2  0
 38 36  1  0
 39 12  1  0
 27 22  1  0
M  END
$$$$
