
     RDKit          3D

 31 35  0  0  0  0  0  0  0  0999 V2000
  -16.8711   33.6071  -25.7782 C   0  0  0  0  0  0  0  0  0  0  0  0
  -18.1574   33.9744  -25.4038 O   0  0  0  0  0  0  0  0  0  0  0  0
  -18.0765   35.0506  -24.5611 C   0  0  0  0  0  0  0  0  0  0  0  0
  -19.3518   35.5035  -23.9394 C   0  0  1  0  0  0  0  0  0  0  0  0
  -19.9781   34.4331  -23.1495 O   0  0  0  0  0  0  0  0  0  0  0  0
  -19.3083   34.0296  -21.9731 C   0  0  0  0  0  0  0  0  0  0  0  0
  -19.4317   32.9018  -21.4528 O   0  0  0  0  0  0  0  0  0  0  0  0
  -18.4283   35.0089  -21.3532 C   0  0  0  0  0  0  0  0  0  0  0  0
  -17.4846   35.0439  -20.3476 C   0  0  0  0  0  0  0  0  0  0  0  0
  -16.8714   36.2291  -20.3713 O   0  0  0  0  0  0  0  0  0  0  0  0
  -17.3626   36.9810  -21.3406 C   0  0  0  0  0  0  0  0  0  0  0  0
  -18.3195   36.2411  -21.9383 C   0  0  0  0  0  0  0  0  0  0  0  0
  -19.2130   36.6766  -23.0420 C   0  0  2  0  0  0  0  0  0  0  0  0
  -20.6245   36.7418  -22.3291 C   0  0  0  0  0  0  0  0  0  0  0  0
  -18.9081   37.9983  -23.5476 C   0  0  0  0  0  0  0  0  0  0  0  0
  -17.9264   38.7625  -22.9933 C   0  0  0  0  0  0  0  0  0  0  0  0
  -17.1107   38.3080  -21.8588 C   0  0  0  0  0  0  0  0  0  0  0  0
  -16.2382   39.0402  -21.3668 O   0  0  0  0  0  0  0  0  0  0  0  0
  -17.6077   40.0663  -23.5600 C   0  0  2  0  0  0  0  0  0  0  0  0
  -17.1955   41.1405  -22.5964 C   0  0  0  0  0  0  0  0  0  0  0  0
  -17.4672   42.4339  -23.3942 C   0  0  0  0  0  0  0  0  0  0  0  0
  -18.3171   42.0116  -24.5324 C   0  0  0  0  0  0  0  0  0  0  0  0
  -18.5190   42.6241  -25.5412 O   0  0  0  0  0  0  0  0  0  0  0  0
  -18.8463   40.6945  -24.1494 C   0  0  2  0  0  0  0  0  0  0  0  0
  -19.9194   40.7832  -23.1005 C   0  0  0  0  0  0  0  0  0  0  0  0
  -19.1934   39.7891  -25.3011 C   0  0  0  0  0  0  0  0  0  0  0  0
  -19.7628   38.5476  -24.6158 C   0  0  1  0  0  0  0  0  0  0  0  0
  -20.3394   37.6829  -25.5093 O   0  0  0  0  0  0  0  0  0  0  0  0
  -20.6115   38.0029  -26.8509 C   0  0  0  0  0  0  0  0  0  0  0  0
  -21.5120   39.0928  -27.2760 C   0  0  0  0  0  0  0  0  0  0  0  0
  -20.0360   37.2976  -27.7010 O   0  0  0  0  0  0  0  0  0  0  0  0
  1  2  1  0
  2  3  1  0
  4  3  1  1
  4  5  1  0
  5  6  1  0
  6  7  2  0
  6  8  1  0
  8  9  2  0
  9 10  1  0
 10 11  1  0
 11 12  2  0
 12 13  1  0
 13 14  1  1
 13 15  1  0
 15 16  2  0
 16 17  1  0
 17 18  2  0
 16 19  1  0
 19 20  1  1
 20 21  1  0
 21 22  1  0
 22 23  2  0
 22 24  1  0
 24 25  1  1
 24 26  1  0
 26 27  1  0
 27 28  1  6
 28 29  1  0
 29 30  1  0
 29 31  2  0
 13  4  1  0
 27 15  1  0
 12  8  1  0
 24 19  1  0
 17 11  1  0
M  END
$$$$
