
     RDKit          3D

 26 28  0  0  0  0  0  0  0  0999 V2000
  -14.8961   22.2734  -45.1944 C   0  0  0  0  0  0  0  0  0  0  0  0
  -16.4522   21.7894  -44.4789 S   0  0  0  0  0  6  0  0  0  0  0  0
  -17.1169   20.8586  -45.4788 O   0  0  0  0  0  0  0  0  0  0  0  0
  -17.2845   22.9977  -44.2568 O   0  0  0  0  0  0  0  0  0  0  0  0
  -16.1360   20.8947  -43.0242 C   0  0  0  0  0  0  0  0  0  0  0  0
  -16.9946   20.9794  -41.9405 C   0  0  0  0  0  0  0  0  0  0  0  0
  -16.7507   20.2743  -40.7863 C   0  0  0  0  0  0  0  0  0  0  0  0
  -15.6208   19.4514  -40.6846 C   0  0  0  0  0  0  0  0  0  0  0  0
  -15.3696   18.7041  -39.4506 C   0  0  0  0  0  0  0  0  0  0  0  0
  -14.1077   18.3409  -39.0499 C   0  0  0  0  0  0  0  0  0  0  0  0
  -13.8792   17.6502  -37.9086 N   0  0  0  0  0  0  0  0  0  0  0  0
  -14.9070   17.2896  -37.1125 C   0  0  0  0  0  0  0  0  0  0  0  0
  -14.7215   16.5668  -35.9089 N   0  0  0  0  0  0  0  0  0  0  0  0
  -16.1840   17.6516  -37.5085 C   0  0  0  0  0  0  0  0  0  0  0  0
  -17.3140   17.2585  -36.6390 C   0  0  0  0  0  0  0  0  0  0  0  0
  -17.1325   16.9740  -35.4285 O   0  0  0  0  0  0  0  0  0  0  0  0
  -18.6251   17.2032  -37.1869 N   0  0  0  0  0  0  0  0  0  0  0  0
  -19.7589   17.3983  -36.3519 C   0  0  0  0  0  0  0  0  0  0  0  0
  -20.3827   18.6147  -36.2636 C   0  0  0  0  0  0  0  0  0  0  0  0
  -21.4807   18.7705  -35.4438 C   0  0  0  0  0  0  0  0  0  0  0  0
  -21.9820   17.7212  -34.6945 C   0  0  0  0  0  0  0  0  0  0  0  0
  -21.3591   16.4915  -34.7776 C   0  0  0  0  0  0  0  0  0  0  0  0
  -20.2557   16.3506  -35.6066 C   0  0  0  0  0  0  0  0  0  0  0  0
  -16.3844   18.3346  -38.6415 N   0  0  0  0  0  0  0  0  0  0  0  0
  -14.7932   19.3917  -41.7762 C   0  0  0  0  0  0  0  0  0  0  0  0
  -15.0213   20.0947  -42.9495 C   0  0  0  0  0  0  0  0  0  0  0  0
  1  2  1  0
  2  3  2  0
  2  4  2  0
  2  5  1  0
  5  6  2  0
  6  7  1  0
  7  8  2  0
  8  9  1  0
  9 10  2  0
 10 11  1  0
 11 12  2  0
 12 13  1  0
 12 14  1  0
 14 15  1  0
 15 16  2  0
 15 17  1  0
 17 18  1  0
 18 19  2  0
 19 20  1  0
 20 21  2  0
 21 22  1  0
 22 23  2  0
 14 24  2  0
  8 25  1  0
 25 26  2  0
 26  5  1  0
 24  9  1  0
 23 18  1  0
M  END
$$$$
