
     RDKit          3D

 22 24  0  0  0  0  0  0  0  0999 V2000
  -27.9361   16.4760  -25.7803 C   0  0  0  0  0  0  0  0  0  0  0  0
  -29.4178   16.4254  -25.8310 C   0  0  0  0  0  0  0  0  0  0  0  0
  -30.0686   15.2713  -25.4409 C   0  0  0  0  0  0  0  0  0  0  0  0
  -31.4434   15.2026  -25.4801 C   0  0  0  0  0  0  0  0  0  0  0  0
  -32.1428   16.3059  -25.9146 C   0  0  0  0  0  0  0  0  0  0  0  0
  -31.4856   17.4613  -26.3049 C   0  0  0  0  0  0  0  0  0  0  0  0
  -30.1086   17.5335  -26.2669 C   0  0  0  0  0  0  0  0  0  0  0  0
  -29.3621   18.6805  -26.6499 N   0  0  0  0  0  0  0  0  0  0  0  0
  -29.9475   19.8448  -27.2090 C   0  0  0  0  0  0  0  0  0  0  0  0
  -31.1817   19.7650  -27.4961 O   0  0  0  0  0  0  0  0  0  0  0  0
  -29.1792   21.0937  -27.4522 C   0  0  0  0  0  0  0  0  0  0  0  0
  -29.4300   21.5355  -28.8764 C   0  0  0  0  0  0  0  0  0  0  0  0
  -28.6057   20.7912  -29.7980 N   0  0  0  0  0  0  0  0  0  0  0  0
  -28.9578   19.6755  -30.4311 C   0  0  0  0  0  0  0  0  0  0  0  0
  -30.0707   19.0789  -30.3338 O   0  0  0  0  0  0  0  0  0  0  0  0
  -27.9505   19.2854  -31.1852 O   0  0  0  0  0  0  0  0  0  0  0  0
  -26.9493   20.1333  -31.0498 C   0  0  0  0  0  0  0  0  0  0  0  0
  -25.6805   20.2260  -31.5814 C   0  0  0  0  0  0  0  0  0  0  0  0
  -24.8071   21.2559  -31.2554 C   0  0  0  0  0  0  0  0  0  0  0  0
  -25.2252   22.2258  -30.3638 C   0  0  0  0  0  0  0  0  0  0  0  0
  -26.4915   22.1625  -29.8122 C   0  0  0  0  0  0  0  0  0  0  0  0
  -27.3426   21.1299  -30.1506 C   0  0  0  0  0  0  0  0  0  0  0  0
  1  2  1  0
  2  3  2  0
  3  4  1  0
  4  5  2  0
  5  6  1  0
  6  7  2  0
  7  8  1  0
  8  9  1  0
  9 10  2  0
  9 11  1  0
 11 12  1  0
 12 13  1  0
 13 14  1  0
 14 15  2  0
 14 16  1  0
 16 17  1  0
 17 18  2  0
 18 19  1  0
 19 20  2  0
 20 21  1  0
 21 22  2  0
  7  2  1  0
 22 13  1  0
 22 17  1  0
M  END
$$$$
