
     RDKit          3D

 29 31  0  0  0  0  0  0  0  0999 V2000
  -14.4209   17.5040  -36.6725 C   0  0  0  0  0  0  0  0  0  0  0  0
  -13.9080   17.6445  -38.0635 C   0  0  0  0  0  0  0  0  0  0  0  0
  -12.5706   17.5422  -38.3500 C   0  0  0  0  0  0  0  0  0  0  0  0
  -12.1041   17.6599  -39.6388 C   0  0  0  0  0  0  0  0  0  0  0  0
  -10.6257   17.5640  -39.9392 C   0  0  0  0  0  0  0  0  0  0  0  0
  -13.0061   17.8835  -40.6548 C   0  0  0  0  0  0  0  0  0  0  0  0
  -14.3240   17.9918  -40.4193 C   0  0  0  0  0  0  0  0  0  0  0  0
  -15.3408   18.2112  -41.4176 C   0  0  0  0  0  0  0  0  0  0  0  0
  -16.2216   17.2270  -41.4226 O   0  0  0  0  0  0  0  0  0  0  0  0
  -15.5247   19.2521  -42.3176 N   0  0  0  0  0  0  0  0  0  0  0  0
  -16.8261   19.8278  -42.3564 N   0  0  0  0  0  0  0  0  0  0  0  0
  -17.4392   20.2740  -41.1695 C   0  0  0  0  0  0  0  0  0  0  0  0
  -16.7920   20.0891  -40.1040 O   0  0  0  0  0  0  0  0  0  0  0  0
  -18.7388   20.9184  -41.0793 C   0  0  0  0  0  0  0  0  0  0  0  0
  -18.9694   21.8063  -40.0098 C   0  0  0  0  0  0  0  0  0  0  0  0
  -20.1725   22.4634  -39.8965 C   0  0  0  0  0  0  0  0  0  0  0  0
  -21.1529   22.2441  -40.8419 C   0  0  0  0  0  0  0  0  0  0  0  0
  -20.9509   21.3729  -41.9058 C   0  0  0  0  0  0  0  0  0  0  0  0
  -19.7227   20.6994  -42.0241 C   0  0  0  0  0  0  0  0  0  0  0  0
  -19.4931   19.7537  -43.1404 C   0  0  0  0  0  0  0  0  0  0  0  0
  -21.9582   21.1255  -42.9326 C   0  0  0  0  0  0  0  0  0  0  0  0
  -23.2297   21.9042  -42.7870 C   0  0  0  0  0  0  0  0  0  0  0  0
  -23.1063   23.1596  -41.9651 C   0  0  0  0  0  0  0  0  0  0  0  0
  -22.3756   22.8762  -40.7776 O   0  0  0  0  0  0  0  0  0  0  0  0
  -14.5296   19.7645  -43.2028 C   0  0  0  0  0  0  0  0  0  0  0  0
  -13.3103   20.2699  -42.4758 C   0  0  0  0  0  0  0  0  0  0  0  0
  -15.1027   20.9076  -44.0397 C   0  0  0  0  0  0  0  0  0  0  0  0
  -14.0713   18.6898  -44.1899 C   0  0  0  0  0  0  0  0  0  0  0  0
  -14.7905   17.8708  -39.0994 C   0  0  0  0  0  0  0  0  0  0  0  0
  1  2  1  0
  2  3  2  0
  3  4  1  0
  4  5  1  0
  4  6  2  0
  6  7  1  0
  7  8  1  0
  8  9  2  0
  8 10  1  0
 10 11  1  0
 11 12  1  0
 12 13  2  0
 12 14  1  0
 14 15  2  0
 15 16  1  0
 16 17  2  0
 17 18  1  0
 18 19  2  0
 19 20  1  0
 18 21  1  0
 21 22  1  0
 22 23  1  0
 23 24  1  0
 10 25  1  0
 25 26  1  0
 25 27  1  0
 25 28  1  0
  7 29  2  0
 29  2  1  0
 19 14  1  0
 24 17  1  0
M  END
$$$$
