
     RDKit          3D

 30 31  0  0  0  0  0  0  0  0999 V2000
  -27.2548   20.7306  -27.7886 C   0  0  0  0  0  0  0  0  0  0  0  0
  -28.2383   20.6888  -28.9264 C   0  0  0  0  0  0  0  0  0  0  0  0
  -29.6220   20.9840  -28.3751 C   0  0  0  0  0  0  0  0  0  0  0  0
  -28.2769   19.3228  -29.5596 C   0  0  0  0  0  0  0  0  0  0  0  0
  -28.6799   18.2727  -28.5886 C   0  0  0  0  0  0  0  0  0  0  0  0
  -27.7490   17.5882  -27.8213 C   0  0  0  0  0  0  0  0  0  0  0  0
  -28.1207   16.6151  -26.9192 C   0  0  0  0  0  0  0  0  0  0  0  0
  -29.4390   16.2738  -26.7350 C   0  0  0  0  0  0  0  0  0  0  0  0
  -29.8247   15.2973  -25.8306 C   0  0  0  0  0  0  0  0  0  0  0  0
  -31.1710   15.0285  -25.7196 C   0  0  0  0  0  0  0  0  0  0  0  0
  -32.1458   15.6722  -26.4523 C   0  0  0  0  0  0  0  0  0  0  0  0
  -31.7381   16.6389  -27.3446 C   0  0  0  0  0  0  0  0  0  0  0  0
  -30.3824   16.9484  -27.4942 C   0  0  0  0  0  0  0  0  0  0  0  0
  -30.0059   17.9211  -28.3955 C   0  0  0  0  0  0  0  0  0  0  0  0
  -27.9701   21.7351  -29.8896 N   0  0  0  0  0  0  0  0  0  0  0  0
  -26.6810   21.6701  -30.4818 C   0  0  0  0  0  0  0  0  0  0  0  0
  -26.5641   22.7969  -31.5018 C   0  0  1  0  0  0  0  0  0  0  0  0
  -27.5868   22.5882  -32.4681 O   0  0  0  0  0  0  0  0  0  0  0  0
  -26.8164   24.1531  -30.9301 C   0  0  0  0  0  0  0  0  0  0  0  0
  -26.7378   25.1248  -31.9056 O   0  0  0  0  0  0  0  0  0  0  0  0
  -25.7647   25.5891  -32.7066 C   0  0  0  0  0  0  0  0  0  0  0  0
  -24.4586   25.1736  -32.7348 C   0  0  0  0  0  0  0  0  0  0  0  0
  -23.5365   25.7373  -33.6147 C   0  0  0  0  0  0  0  0  0  0  0  0
  -23.9097   26.7346  -34.4872 C   0  0  0  0  0  0  0  0  0  0  0  0
  -25.2080   27.1685  -34.4790 C   0  0  0  0  0  0  0  0  0  0  0  0
  -25.6722   28.4390  -35.5935 Cl  0  0  0  0  0  0  0  0  0  0  0  0
  -26.1133   26.6101  -33.6107 C   0  0  0  0  0  0  0  0  0  0  0  0
  -27.4706   27.0981  -33.6351 C   0  0  0  0  0  0  0  0  0  0  0  0
  -28.5715   27.4900  -33.6350 N   0  0  0  0  0  0  0  0  0  0  0  0
  -28.1032   20.6271  -29.4395 Cl  0  0  0  0  0  0  0  0  0  0  0  0
  1  2  1  0
  2  3  1  0
  2  4  1  0
  4  5  1  0
  5  6  2  0
  6  7  1  0
  7  8  2  0
  8  9  1  0
  9 10  2  0
 10 11  1  0
 11 12  2  0
 12 13  1  0
 13 14  2  0
  2 15  1  0
 15 16  1  0
 16 17  1  0
 17 18  1  6
 17 19  1  0
 19 20  1  0
 20 21  1  0
 21 22  2  0
 22 23  1  0
 23 24  2  0
 24 25  1  0
 25 26  1  0
 25 27  2  0
 27 28  1  0
 28 29  3  0
 14  5  1  0
 27 21  1  0
 13  8  1  0
M  END
$$$$
