
     RDKit          3D

 31 34  0  0  0  0  0  0  0  0999 V2000
  -16.9288   45.4613  -23.2886 C   0  0  0  0  0  0  0  0  0  0  0  0
  -16.9873   44.2230  -22.6120 O   0  0  0  0  0  0  0  0  0  0  0  0
  -15.9653   43.8507  -21.7608 C   0  0  0  0  0  0  0  0  0  0  0  0
  -14.7172   44.4413  -21.8388 C   0  0  0  0  0  0  0  0  0  0  0  0
  -13.6947   44.0719  -20.9904 C   0  0  0  0  0  0  0  0  0  0  0  0
  -12.3491   44.7024  -21.0679 C   0  0  0  0  0  0  0  0  0  0  0  0
  -12.4685   45.9105  -21.7401 F   0  0  0  0  0  0  0  0  0  0  0  0
  -11.4458   43.9278  -21.7281 F   0  0  0  0  0  0  0  0  0  0  0  0
  -11.8767   44.9636  -19.8141 F   0  0  0  0  0  0  0  0  0  0  0  0
  -13.9489   43.0913  -20.0549 C   0  0  0  0  0  0  0  0  0  0  0  0
  -15.2051   42.5068  -19.9873 C   0  0  0  0  0  0  0  0  0  0  0  0
  -16.2395   42.8624  -20.8258 C   0  0  0  0  0  0  0  0  0  0  0  0
  -17.5675   42.2597  -20.7910 C   0  0  0  0  0  0  0  0  0  0  0  0
  -18.5481   42.7919  -20.0161 N   0  0  0  0  0  0  0  0  0  0  0  0
  -19.7898   42.2799  -19.9431 C   0  0  0  0  0  0  0  0  0  0  0  0
  -20.1171   41.1864  -20.6579 N   0  0  0  0  0  0  0  0  0  0  0  0
  -19.1999   40.5900  -21.4575 C   0  0  0  0  0  0  0  0  0  0  0  0
  -19.5531   39.4755  -22.1714 C   0  0  0  0  0  0  0  0  0  0  0  0
  -18.6218   38.8708  -22.9750 C   0  0  0  0  0  0  0  0  0  0  0  0
  -19.0429   37.4252  -23.9133 S   0  0  0  0  0  6  0  0  0  0  0  0
  -18.8804   37.8017  -25.3627 O   0  0  0  0  0  0  0  0  0  0  0  0
  -20.4962   37.0821  -23.7262 O   0  0  0  0  0  0  0  0  0  0  0  0
  -17.9898   36.1498  -23.5410 N   0  0  0  0  0  0  0  0  0  0  0  0
  -18.2088   35.4027  -22.3434 C   0  0  0  0  0  0  0  0  0  0  0  0
  -17.6463   34.7839  -21.4999 N   0  0  0  0  0  0  0  0  0  0  0  0
  -18.1155   34.1675  -20.4554 C   0  0  0  0  0  0  0  0  0  0  0  0
  -19.5017   34.2436  -20.2978 C   0  0  0  0  0  0  0  0  0  0  0  0
  -19.9914   35.2282  -21.7203 S   0  0  0  0  0  0  0  0  0  0  0  0
  -17.3549   39.4040  -23.0399 C   0  0  0  0  0  0  0  0  0  0  0  0
  -17.0039   40.5251  -22.3202 C   0  0  0  0  0  0  0  0  0  0  0  0
  -17.9166   41.1404  -21.5164 C   0  0  0  0  0  0  0  0  0  0  0  0
  1  2  1  0
  2  3  1  0
  3  4  2  0
  4  5  1  0
  5  6  1  0
  6  7  1  0
  6  8  1  0
  6  9  1  0
  5 10  2  0
 10 11  1  0
 11 12  2  0
 12 13  1  0
 13 14  2  0
 14 15  1  0
 15 16  2  0
 16 17  1  0
 17 18  2  0
 18 19  1  0
 19 20  1  0
 20 21  2  0
 20 22  2  0
 20 23  1  0
 23 24  1  0
 24 25  2  0
 25 26  1  0
 26 27  2  0
 27 28  1  0
 19 29  2  0
 29 30  1  0
 30 31  2  0
 12  3  1  0
 31 13  1  0
 31 17  1  0
 28 24  1  0
M  END
$$$$
