
     RDKit          3D

 22 25  0  0  0  0  0  0  0  0999 V2000
   -9.6124    1.5061  -32.3364 C   0  0  0  0  0  0  0  0  0  0  0  0
  -10.4524    0.4563  -32.9842 C   0  0  0  0  0  0  0  0  0  0  0  0
  -11.5383   -0.0913  -32.3052 C   0  0  0  0  0  0  0  0  0  0  0  0
  -12.3323   -1.0622  -32.8774 C   0  0  0  0  0  0  0  0  0  0  0  0
  -13.4717   -1.5231  -32.1647 N   0  0  0  0  0  0  0  0  0  0  0  0
  -13.3750   -2.7609  -31.5804 C   0  0  0  0  0  0  0  0  0  0  0  0
  -12.2930   -3.3649  -31.7311 O   0  0  0  0  0  0  0  0  0  0  0  0
  -14.4259   -3.2788  -30.8762 C   0  0  0  0  0  0  0  0  0  0  0  0
  -15.5977   -2.5857  -30.7327 C   0  0  0  0  0  0  0  0  0  0  0  0
  -15.6994   -1.3265  -31.3257 C   0  0  0  0  0  0  0  0  0  0  0  0
  -16.8838   -0.6360  -31.1755 C   0  0  0  0  0  0  0  0  0  0  0  0
  -17.0343    0.5686  -31.7204 N   0  0  0  0  0  0  0  0  0  0  0  0
  -16.0530    1.1379  -32.4212 C   0  0  0  0  0  0  0  0  0  0  0  0
  -15.9052    2.3102  -33.0754 N   0  0  0  0  0  0  0  0  0  0  0  0
  -14.7056    2.3926  -33.6223 C   0  0  0  0  0  0  0  0  0  0  0  0
  -13.9581    1.2281  -33.3492 C   0  0  0  0  0  0  0  0  0  0  0  0
  -14.7756    0.4339  -32.6038 C   0  0  0  0  0  0  0  0  0  0  0  0
  -14.5976   -0.8331  -32.0389 C   0  0  0  0  0  0  0  0  0  0  0  0
  -12.0145   -1.4806  -34.1603 C   0  0  0  0  0  0  0  0  0  0  0  0
  -10.9502   -0.9667  -34.8683 C   0  0  0  0  0  0  0  0  0  0  0  0
  -10.1829    0.0024  -34.2575 C   0  0  0  0  0  0  0  0  0  0  0  0
   -9.1303    0.5132  -34.9532 F   0  0  0  0  0  0  0  0  0  0  0  0
  1  2  1  0
  2  3  2  0
  3  4  1  0
  4  5  1  0
  5  6  1  0
  6  7  2  0
  6  8  1  0
  8  9  2  0
  9 10  1  0
 10 11  2  0
 11 12  1  0
 12 13  1  0
 13 14  2  0
 14 15  1  0
 15 16  2  0
 16 17  1  0
 17 18  2  0
  4 19  2  0
 19 20  1  0
 20 21  2  0
 21 22  1  0
 21  2  1  0
 18  5  1  0
 18 10  1  0
 17 13  1  0
M  END
$$$$
