
     RDKit          3D

 17 18  0  0  0  0  0  0  0  0999 V2000
  -16.6180   32.9059  -26.1340 N   0  0  0  0  0  0  0  0  0  0  0  0
  -17.2089   34.1707  -25.8471 C   0  0  0  0  0  0  0  0  0  0  0  0
  -17.8704   34.1671  -24.4832 C   0  0  0  0  0  0  0  0  0  0  0  0
  -18.7043   35.2743  -24.3483 O   0  0  0  0  0  0  0  0  0  0  0  0
  -18.9201   35.5178  -22.9243 B   0  0  0  0  0  0  0  0  0  0  0  0
  -18.3741   36.8471  -22.3125 C   0  0  0  0  0  0  0  0  0  0  0  0
  -17.0589   37.0169  -21.9911 C   0  0  0  0  0  0  0  0  0  0  0  0
  -16.5844   38.1922  -21.4517 C   0  0  0  0  0  0  0  0  0  0  0  0
  -17.4666   39.2127  -21.2362 C   0  0  0  0  0  0  0  0  0  0  0  0
  -18.8036   39.0588  -21.5558 C   0  0  0  0  0  0  0  0  0  0  0  0
  -19.2647   37.8778  -22.0947 C   0  0  0  0  0  0  0  0  0  0  0  0
  -19.8223   34.5527  -22.0749 C   0  0  0  0  0  0  0  0  0  0  0  0
  -21.1768   34.5243  -22.2289 C   0  0  0  0  0  0  0  0  0  0  0  0
  -21.9503   33.6701  -21.4738 C   0  0  0  0  0  0  0  0  0  0  0  0
  -21.3443   32.8365  -20.5535 C   0  0  0  0  0  0  0  0  0  0  0  0
  -19.9715   32.8455  -20.3775 C   0  0  0  0  0  0  0  0  0  0  0  0
  -19.2264   33.7039  -21.1407 C   0  0  0  0  0  0  0  0  0  0  0  0
  1  2  1  0
  2  3  1  0
  3  4  1  0
  4  5  1  0
  5  6  1  0
  6  7  2  0
  7  8  1  0
  8  9  2  0
  9 10  1  0
 10 11  2  0
  5 12  1  0
 12 13  2  0
 13 14  1  0
 14 15  2  0
 15 16  1  0
 16 17  2  0
 11  6  1  0
 17 12  1  0
M  END
$$$$
