
     RDKit          3D

 14 13  0  0  0  0  0  0  0  0999 V2000
  -44.3617   21.9723  -33.6173 Cl  0  0  0  0  0  0  0  0  0  0  0  0
  -44.3619   21.9695  -33.6169 Cl  0  0  0  0  0  0  0  0  0  0  0  0
  -42.0280   19.9873  -33.6554 N   0  0  0  0  0  0  0  0  0  0  0  0
  -43.4292   20.1753  -33.5122 C   0  0  0  0  0  0  0  0  0  0  0  0
  -44.2883   19.1298  -33.2563 C   0  0  0  0  0  0  0  0  0  0  0  0
  -45.6455   19.3310  -33.1203 C   0  0  0  0  0  0  0  0  0  0  0  0
  -46.2048   20.5853  -33.2340 C   0  0  0  0  0  0  0  0  0  0  0  0
  -47.5765   20.7374  -33.0892 O   0  0  0  0  0  0  0  0  0  0  0  0
  -45.3425   21.6286  -33.4901 C   0  0  0  0  0  0  0  0  0  0  0  0
  -45.8558   22.8709  -33.6076 N   0  0  0  0  0  0  0  0  0  0  0  0
  -45.0781   23.9521  -33.8588 C   0  0  0  0  0  0  0  0  0  0  0  0
  -43.7134   23.8132  -34.0047 C   0  0  0  0  0  0  0  0  0  0  0  0
  -43.1698   22.5361  -33.8858 C   0  0  0  0  0  0  0  0  0  0  0  0
  -43.9789   21.4459  -33.6295 C   0  0  0  0  0  0  0  0  0  0  0  0
  3  4  1  0
  4  5  2  0
  5  6  1  0
  6  7  2  0
  7  8  1  0
  7  9  1  0
  9 10  2  0
 10 11  1  0
 11 12  2  0
 12 13  1  0
 13 14  2  0
 14  4  1  0
 14  9  1  0
M  END
$$$$
