
     RDKit          3D

 29 32  0  0  0  0  0  0  0  0999 V2000
  -31.5029    9.7798  -24.2731 C   0  0  0  0  0  0  0  0  0  0  0  0
  -32.2949   11.0259  -24.1204 N   0  0  0  0  0  0  0  0  0  0  0  0
  -31.7469   12.2304  -24.6153 C   0  0  0  0  0  0  0  0  0  0  0  0
  -30.6150   12.1431  -25.2217 O   0  0  0  0  0  0  0  0  0  0  0  0
  -32.3595   13.5377  -24.4924 C   0  0  0  0  0  0  0  0  0  0  0  0
  -33.4658   13.9343  -23.7893 C   0  0  0  0  0  0  0  0  0  0  0  0
  -34.3696   13.1178  -22.9109 C   0  0  0  0  0  0  0  0  0  0  0  0
  -33.6418   15.2163  -24.0000 O   0  0  0  0  0  0  0  0  0  0  0  0
  -32.7100   15.6967  -24.8073 C   0  0  0  0  0  0  0  0  0  0  0  0
  -32.4834   16.9713  -25.3099 C   0  0  0  0  0  0  0  0  0  0  0  0
  -31.4376   17.2517  -26.1476 C   0  0  0  0  0  0  0  0  0  0  0  0
  -31.1811   18.4990  -26.6648 O   0  0  0  0  0  0  0  0  0  0  0  0
  -30.2195   19.3943  -26.3272 C   0  0  0  0  0  0  0  0  0  0  0  0
  -29.8063   19.6538  -25.0824 N   0  0  0  0  0  0  0  0  0  0  0  0
  -28.8598   20.5339  -24.7406 C   0  0  0  0  0  0  0  0  0  0  0  0
  -28.2617   21.2290  -25.7440 N   0  0  0  0  0  0  0  0  0  0  0  0
  -28.6292   21.0179  -27.0229 C   0  0  0  0  0  0  0  0  0  0  0  0
  -28.0228   21.7257  -28.0671 C   0  0  0  0  0  0  0  0  0  0  0  0
  -28.3955   21.5129  -29.3768 C   0  0  0  0  0  0  0  0  0  0  0  0
  -27.7797   22.2275  -30.4008 O   0  0  0  0  0  0  0  0  0  0  0  0
  -27.2416   23.5079  -30.2371 C   0  0  0  0  0  0  0  0  0  0  0  0
  -29.3739   20.6020  -29.7210 C   0  0  0  0  0  0  0  0  0  0  0  0
  -29.7342   20.4031  -31.0464 O   0  0  0  0  0  0  0  0  0  0  0  0
  -31.0252   20.8235  -31.4465 C   0  0  0  0  0  0  0  0  0  0  0  0
  -29.9650   19.9097  -28.6817 C   0  0  0  0  0  0  0  0  0  0  0  0
  -29.5949   20.1189  -27.3640 C   0  0  0  0  0  0  0  0  0  0  0  0
  -30.5719   16.1926  -26.4995 C   0  0  0  0  0  0  0  0  0  0  0  0
  -30.8100   14.9424  -25.9949 C   0  0  0  0  0  0  0  0  0  0  0  0
  -31.8676   14.6707  -25.1509 C   0  0  0  0  0  0  0  0  0  0  0  0
  1  2  1  0
  2  3  1  0
  3  4  2  0
  3  5  1  0
  5  6  2  0
  6  7  1  0
  6  8  1  0
  8  9  1  0
  9 10  2  0
 10 11  1  0
 11 12  1  0
 12 13  1  0
 13 14  2  0
 14 15  1  0
 15 16  2  0
 16 17  1  0
 17 18  2  0
 18 19  1  0
 19 20  1  0
 20 21  1  0
 19 22  2  0
 22 23  1  0
 23 24  1  0
 22 25  1  0
 25 26  2  0
 11 27  2  0
 27 28  1  0
 28 29  2  0
 29  5  1  0
 29  9  1  0
 26 13  1  0
 26 17  1  0
M  END
$$$$
