
     RDKit          3D

 35 39  0  0  0  0  0  0  0  0999 V2000
  -13.7672   -0.7361  -32.0873 C   0  0  0  0  0  0  0  0  0  0  0  0
  -15.0585   -1.2396  -32.7236 C   0  0  0  0  0  0  0  0  0  0  0  0
  -15.5846   -0.2676  -33.5811 O   0  0  0  0  0  0  0  0  0  0  0  0
  -16.8155   -0.3471  -34.2242 C   0  0  0  0  0  0  0  0  0  0  0  0
  -16.9881   -1.1690  -35.3053 C   0  0  0  0  0  0  0  0  0  0  0  0
  -18.1931   -1.2994  -36.0022 C   0  0  0  0  0  0  0  0  0  0  0  0
  -18.3183   -2.1377  -37.1228 N   0  0  0  0  0  0  0  0  0  0  0  0
  -19.1247   -3.3064  -37.1704 C   0  0  0  0  0  0  0  0  0  0  0  0
  -19.9678   -3.4282  -38.4003 C   0  0  0  0  0  0  0  0  0  0  0  0
  -19.8803   -2.3023  -39.3563 C   0  0  0  0  0  0  0  0  0  0  0  0
  -21.0141   -1.4775  -39.1328 O   0  0  0  0  0  0  0  0  0  0  0  0
  -18.6934   -1.4363  -39.3367 C   0  0  0  0  0  0  0  0  0  0  0  0
  -17.6141   -1.8053  -38.3410 C   0  0  0  0  0  0  0  0  0  0  0  0
  -19.2386   -0.5284  -35.5278 C   0  0  0  0  0  0  0  0  0  0  0  0
  -19.0773    0.3071  -34.4360 C   0  0  0  0  0  0  0  0  0  0  0  0
  -17.8824    0.4173  -33.7682 C   0  0  0  0  0  0  0  0  0  0  0  0
  -17.7027    1.2709  -32.6627 N   0  0  0  0  0  0  0  0  0  0  0  0
  -18.8366    1.7076  -31.9262 C   0  0  0  0  0  0  0  0  0  0  0  0
  -18.7159    2.3021  -30.7433 N   0  0  0  0  0  0  0  0  0  0  0  0
  -19.8260    2.6947  -30.0879 C   0  0  0  0  0  0  0  0  0  0  0  0
  -21.0948    2.5073  -30.5899 C   0  0  0  0  0  0  0  0  0  0  0  0
  -21.2104    1.8882  -31.8180 C   0  0  0  0  0  0  0  0  0  0  0  0
  -20.0876    1.5178  -32.4296 N   0  0  0  0  0  0  0  0  0  0  0  0
  -22.3771    1.5595  -32.5610 N   0  0  0  0  0  0  0  0  0  0  0  0
  -22.2362    0.5756  -33.6087 C   0  0  0  0  0  0  0  0  0  0  0  0
  -23.7109    2.0765  -32.4131 C   0  0  0  0  0  0  0  0  0  0  0  0
  -24.5118    1.8560  -33.4975 C   0  0  0  0  0  0  0  0  0  0  0  0
  -25.8085    2.3007  -33.4764 C   0  0  0  0  0  0  0  0  0  0  0  0
  -26.3280    2.9650  -32.3895 C   0  0  0  0  0  0  0  0  0  0  0  0
  -25.4893    3.1697  -31.3122 C   0  0  0  0  0  0  0  0  0  0  0  0
  -24.1877    2.7337  -31.3119 C   0  0  0  0  0  0  0  0  0  0  0  0
  -23.4841    3.0659  -30.0578 C   0  0  0  0  0  0  0  0  0  0  0  0
  -24.2564    3.4571  -29.1477 O   0  0  0  0  0  0  0  0  0  0  0  0
  -22.1031    3.0149  -29.7220 N   0  0  0  0  0  0  0  0  0  0  0  0
  -21.6933    3.5063  -28.4308 C   0  0  0  0  0  0  0  0  0  0  0  0
  1  2  1  0
  2  3  1  0
  3  4  1  0
  4  5  2  0
  5  6  1  0
  6  7  1  0
  7  8  1  0
  8  9  1  0
  9 10  1  0
 10 11  1  0
 10 12  1  0
 12 13  1  0
  6 14  2  0
 14 15  1  0
 15 16  2  0
 16 17  1  0
 17 18  1  0
 18 19  2  0
 19 20  1  0
 20 21  2  0
 21 22  1  0
 22 23  2  0
 22 24  1  0
 24 25  1  0
 24 26  1  0
 26 27  2  0
 27 28  1  0
 28 29  2  0
 29 30  1  0
 30 31  2  0
 31 32  1  0
 32 33  2  0
 32 34  1  0
 34 35  1  0
 16  4  1  0
 23 18  1  0
 31 26  1  0
 13  7  1  0
 34 21  1  0
M  END
$$$$
