
     RDKit          3D

 28 31  0  0  0  0  0  0  0  0999 V2000
  -17.4862   15.6777  -29.9405 O   0  0  0  0  0  0  0  0  0  0  0  0
  -17.1249   16.0388  -31.0772 C   0  0  0  0  0  0  0  0  0  0  0  0
  -17.9392   17.0673  -31.8251 C   0  0  0  0  0  0  0  0  0  0  0  0
  -18.3527   16.5380  -33.0745 O   0  0  0  0  0  0  0  0  0  0  0  0
  -19.6390   16.0475  -33.2639 C   0  0  0  0  0  0  0  0  0  0  0  0
  -20.7040   16.8894  -33.5438 C   0  0  0  0  0  0  0  0  0  0  0  0
  -21.9367   16.3422  -33.7177 C   0  0  0  0  0  0  0  0  0  0  0  0
  -22.1582   14.9852  -33.6247 C   0  0  0  0  0  0  0  0  0  0  0  0
  -23.4571   14.4784  -33.8151 N   0  0  0  0  0  0  0  0  0  0  0  0
  -24.3362   14.8961  -34.7485 C   0  0  0  0  0  0  0  0  0  0  0  0
  -25.4666   14.1403  -34.5814 C   0  0  0  0  0  0  0  0  0  0  0  0
  -25.2275   13.3020  -33.5611 N   0  0  0  0  0  0  0  0  0  0  0  0
  -24.0031   13.4904  -33.0755 C   0  0  0  0  0  0  0  0  0  0  0  0
  -21.1015   14.1207  -33.3441 C   0  0  0  0  0  0  0  0  0  0  0  0
  -19.8565   14.6937  -33.1705 C   0  0  0  0  0  0  0  0  0  0  0  0
  -15.9600   15.4851  -31.6564 N   0  0  0  0  0  0  0  0  0  0  0  0
  -14.9935   14.7091  -30.9806 C   0  0  0  0  0  0  0  0  0  0  0  0
  -13.6446   14.9189  -30.9780 C   0  0  0  0  0  0  0  0  0  0  0  0
  -12.8345   14.0467  -30.2493 C   0  0  0  0  0  0  0  0  0  0  0  0
  -13.3384   12.9836  -29.5329 C   0  0  0  0  0  0  0  0  0  0  0  0
  -12.4932   12.0744  -28.7733 C   0  0  0  0  0  0  0  0  0  0  0  0
  -11.7165   12.4725  -27.7071 C   0  0  0  0  0  0  0  0  0  0  0  0
  -10.9337   11.5668  -27.0211 C   0  0  0  0  0  0  0  0  0  0  0  0
  -10.9321   10.2322  -27.4161 C   0  0  0  0  0  0  0  0  0  0  0  0
  -11.6981    9.8178  -28.4742 C   0  0  0  0  0  0  0  0  0  0  0  0
  -12.4714   10.7336  -29.1455 C   0  0  0  0  0  0  0  0  0  0  0  0
  -14.7050   12.7673  -29.5328 C   0  0  0  0  0  0  0  0  0  0  0  0
  -15.5025   13.6252  -30.2497 C   0  0  0  0  0  0  0  0  0  0  0  0
  1  2  2  0
  2  3  1  0
  3  4  1  0
  4  5  1  0
  5  6  2  0
  6  7  1  0
  7  8  2  0
  8  9  1  0
  9 10  1  0
 10 11  2  0
 11 12  1  0
 12 13  2  0
  8 14  1  0
 14 15  2  0
  2 16  1  0
 16 17  1  0
 17 18  2  0
 18 19  1  0
 19 20  2  0
 20 21  1  0
 21 22  2  0
 22 23  1  0
 23 24  2  0
 24 25  1  0
 25 26  2  0
 20 27  1  0
 27 28  2  0
 15  5  1  0
 28 17  1  0
 13  9  1  0
 26 21  1  0
M  END
$$$$
