
     RDKit          3D

 32 36  0  0  0  0  0  0  0  0999 V2000
  -13.6607   -2.9437  -36.7244 N   0  0  0  0  0  0  0  0  0  0  0  0
  -13.6268   -2.7566  -35.3182 C   0  0  0  0  0  0  0  0  0  0  0  0
  -14.2148   -1.8723  -34.6160 N   0  0  0  0  0  0  0  0  0  0  0  0
  -13.9453   -1.9911  -33.2036 C   0  0  1  0  0  0  0  0  0  0  0  0
  -13.3737   -0.7285  -32.7215 C   0  0  0  0  0  0  0  0  0  0  0  0
  -14.1162    0.0383  -31.8538 C   0  0  0  0  0  0  0  0  0  0  0  0
  -13.6611    1.2414  -31.3532 C   0  0  0  0  0  0  0  0  0  0  0  0
  -12.3995    1.6580  -31.7667 C   0  0  0  0  0  0  0  0  0  0  0  0
  -11.6144    0.9274  -32.6348 C   0  0  0  0  0  0  0  0  0  0  0  0
  -10.2928    1.3454  -33.0797 C   0  0  0  0  0  0  0  0  0  0  0  0
   -9.3400    1.8670  -32.2637 C   0  0  0  0  0  0  0  0  0  0  0  0
   -8.1461    2.2203  -32.7903 N   0  0  0  0  0  0  0  0  0  0  0  0
   -7.8580    2.0799  -34.0813 C   0  0  0  0  0  0  0  0  0  0  0  0
   -8.7859    1.5652  -34.9106 N   0  0  0  0  0  0  0  0  0  0  0  0
   -9.9933    1.1999  -34.4194 C   0  0  0  0  0  0  0  0  0  0  0  0
  -12.1332   -0.2649  -33.0948 C   0  0  0  0  0  0  0  0  0  0  0  0
  -15.2808   -2.2527  -32.5537 C   0  0  0  0  0  0  0  0  0  0  0  0
  -16.4331   -1.8300  -33.1330 C   0  0  0  0  0  0  0  0  0  0  0  0
  -17.6553   -2.0829  -32.5044 C   0  0  0  0  0  0  0  0  0  0  0  0
  -17.7208   -2.7388  -31.3322 N   0  0  0  0  0  0  0  0  0  0  0  0
  -16.5820   -3.1720  -30.7327 C   0  0  0  0  0  0  0  0  0  0  0  0
  -16.5888   -3.8937  -29.4524 C   0  0  0  0  0  0  0  0  0  0  0  0
  -16.8262   -3.0499  -28.3826 F   0  0  0  0  0  0  0  0  0  0  0  0
  -17.5895   -4.8755  -29.4621 F   0  0  0  0  0  0  0  0  0  0  0  0
  -15.3760   -2.9219  -31.3536 C   0  0  0  0  0  0  0  0  0  0  0  0
  -13.0626   -3.1476  -33.1196 C   0  0  0  0  0  0  0  0  0  0  0  0
  -12.4530   -3.7825  -32.0317 C   0  0  0  0  0  0  0  0  0  0  0  0
  -11.6540   -4.8742  -32.2572 C   0  0  0  0  0  0  0  0  0  0  0  0
  -11.4439   -5.3554  -33.5487 C   0  0  0  0  0  0  0  0  0  0  0  0
  -12.0499   -4.7221  -34.6136 C   0  0  0  0  0  0  0  0  0  0  0  0
  -11.8736   -5.1566  -35.8914 F   0  0  0  0  0  0  0  0  0  0  0  0
  -12.8716   -3.6030  -34.4051 C   0  0  0  0  0  0  0  0  0  0  0  0
  1  2  1  0
  2  3  2  0
  3  4  1  0
  4  5  1  1
  5  6  2  0
  6  7  1  0
  7  8  2  0
  8  9  1  0
  9 10  1  0
 10 11  2  0
 11 12  1  0
 12 13  2  0
 13 14  1  0
 14 15  2  0
  9 16  2  0
  4 17  1  0
 17 18  2  0
 18 19  1  0
 19 20  2  0
 20 21  1  0
 21 22  1  0
 22 23  1  0
 22 24  1  0
 21 25  2  0
  4 26  1  0
 26 27  2  0
 27 28  1  0
 28 29  2  0
 29 30  1  0
 30 31  1  0
 30 32  2  0
 32  2  1  0
 16  5  1  0
 25 17  1  0
 32 26  1  0
 15 10  1  0
M  END
$$$$
