
     RDKit          3D

 28 29  0  0  0  0  0  0  0  0999 V2000
  -31.2201   22.8165  -32.8389 C   0  0  0  0  0  0  0  0  0  0  0  0
  -29.8852   23.3762  -32.2924 C   0  0  0  0  0  0  0  0  0  0  0  0
  -30.1358   24.8790  -32.1898 C   0  0  0  0  0  0  0  0  0  0  0  0
  -29.6471   22.7776  -30.9563 C   0  0  0  0  0  0  0  0  0  0  0  0
  -28.6373   21.6949  -30.8516 C   0  0  2  0  0  0  0  0  0  0  0  0
  -28.4914   21.0678  -29.5741 N   0  0  0  0  0  0  0  0  0  0  0  0
  -28.6251   19.6665  -29.4084 C   0  0  0  0  0  0  0  0  0  0  0  0
  -28.8605   18.9138  -30.4151 O   0  0  0  0  0  0  0  0  0  0  0  0
  -28.4979   19.0493  -28.0888 C   0  0  2  0  0  0  0  0  0  0  0  0
  -27.1533   18.3949  -27.9356 C   0  0  0  0  0  0  0  0  0  0  0  0
  -26.6287   18.4458  -26.5703 C   0  0  0  0  0  0  0  0  0  0  0  0
  -26.7479   17.4096  -25.6683 C   0  0  0  0  0  0  0  0  0  0  0  0
  -26.2214   17.5450  -24.3969 C   0  0  0  0  0  0  0  0  0  0  0  0
  -25.5767   18.6908  -24.0001 C   0  0  0  0  0  0  0  0  0  0  0  0
  -25.4497   19.7404  -24.8970 C   0  0  0  0  0  0  0  0  0  0  0  0
  -25.9779   19.5859  -26.1500 C   0  0  0  0  0  0  0  0  0  0  0  0
  -29.5965   18.1843  -27.7805 N   0  0  0  0  0  0  0  0  0  0  0  0
  -29.9056   17.7253  -26.4699 C   0  0  0  0  0  0  0  0  0  0  0  0
  -29.3719   18.3200  -25.5174 O   0  0  0  0  0  0  0  0  0  0  0  0
  -30.8088   16.6043  -26.2204 C   0  0  0  0  0  0  0  0  0  0  0  0
  -31.9269   16.4361  -27.0089 C   0  0  0  0  0  0  0  0  0  0  0  0
  -32.7801   15.4165  -26.8087 N   0  0  0  0  0  0  0  0  0  0  0  0
  -32.5854   14.5124  -25.8316 C   0  0  0  0  0  0  0  0  0  0  0  0
  -31.4697   14.6716  -25.0370 C   0  0  0  0  0  0  0  0  0  0  0  0
  -30.6089   15.7085  -25.2464 N   0  0  0  0  0  0  0  0  0  0  0  0
  -27.2005   22.1933  -31.3590 B   0  0  0  0  0  0  0  0  0  0  0  0
  -26.2180   21.1934  -31.7618 O   0  0  0  0  0  0  0  0  0  0  0  0
  -26.7176   23.4473  -30.7891 O   0  0  0  0  0  0  0  0  0  0  0  0
  1  2  1  0
  2  3  1  0
  2  4  1  0
  5  4  1  1
  5  6  1  0
  6  7  1  0
  7  8  2  0
  7  9  1  0
  9 10  1  6
 10 11  1  0
 11 12  2  0
 12 13  1  0
 13 14  2  0
 14 15  1  0
 15 16  2  0
  9 17  1  0
 17 18  1  0
 18 19  2  0
 18 20  1  0
 20 21  2  0
 21 22  1  0
 22 23  2  0
 23 24  1  0
 24 25  2  0
  5 26  1  0
 26 27  1  0
 26 28  1  0
 16 11  1  0
 25 20  1  0
M  END
$$$$
