
     RDKit          3D

 33 35  0  0  0  0  0  0  0  0999 V2000
  -32.7339   17.1059  -27.5013 C   0  0  0  0  0  0  0  0  0  0  0  0
  -31.5207   16.9434  -28.2940 N   0  0  0  0  0  0  0  0  0  0  0  0
  -30.9166   18.0976  -28.8403 C   0  0  0  0  0  0  0  0  0  0  0  0
  -29.9286   18.7345  -27.9073 C   0  0  0  0  0  0  0  0  0  0  0  0
  -29.7304   18.2045  -26.6528 C   0  0  0  0  0  0  0  0  0  0  0  0
  -28.8391   18.7540  -25.7786 N   0  0  0  0  0  0  0  0  0  0  0  0
  -28.1217   19.8379  -26.1183 C   0  0  0  0  0  0  0  0  0  0  0  0
  -27.2285   20.4138  -25.2869 N   0  0  0  0  0  0  0  0  0  0  0  0
  -26.5026   21.4970  -25.6123 C   0  0  0  0  0  0  0  0  0  0  0  0
  -25.5689   22.0768  -24.7111 N   0  0  0  0  0  0  0  0  0  0  0  0
  -26.7025   22.0158  -26.8519 N   0  0  0  0  0  0  0  0  0  0  0  0
  -27.5810   21.4790  -27.7174 C   0  0  0  0  0  0  0  0  0  0  0  0
  -27.7963   22.0178  -29.0179 N   0  0  0  0  0  0  0  0  0  0  0  0
  -28.3236   20.3668  -27.3778 C   0  0  0  0  0  0  0  0  0  0  0  0
  -29.2101   19.8182  -28.2437 N   0  0  0  0  0  0  0  0  0  0  0  0
  -30.9816   15.6455  -28.5042 C   0  0  0  0  0  0  0  0  0  0  0  0
  -30.1126   15.2952  -29.5024 C   0  0  0  0  0  0  0  0  0  0  0  0
  -29.6076   14.0056  -29.6754 C   0  0  0  0  0  0  0  0  0  0  0  0
  -29.9675   13.0128  -28.8361 C   0  0  0  0  0  0  0  0  0  0  0  0
  -29.4601   11.6609  -28.9980 C   0  0  0  0  0  0  0  0  0  0  0  0
  -29.9283   10.7917  -28.1804 O   0  0  0  0  0  0  0  0  0  0  0  0
  -28.5216   11.2946  -29.9720 N   0  0  0  0  0  0  0  0  0  0  0  0
  -27.9670    9.9708  -30.1732 C   0  0  1  0  0  0  0  0  0  0  0  0
  -26.5199    9.8259  -29.7934 C   0  0  0  0  0  0  0  0  0  0  0  0
  -25.6551    9.4065  -30.9264 C   0  0  0  0  0  0  0  0  0  0  0  0
  -24.2252    9.4913  -30.5760 C   0  0  0  0  0  0  0  0  0  0  0  0
  -23.6927   10.5551  -30.1977 O   0  0  0  0  0  0  0  0  0  0  0  0
  -23.3782    8.3761  -30.6481 O   0  0  0  0  0  0  0  0  0  0  0  0
  -28.7825    8.8742  -29.6836 C   0  0  0  0  0  0  0  0  0  0  0  0
  -28.5871    7.6709  -30.0359 O   0  0  0  0  0  0  0  0  0  0  0  0
  -29.8164    9.1328  -28.7984 O   0  0  0  0  0  0  0  0  0  0  0  0
  -30.8506   13.3384  -27.8100 C   0  0  0  0  0  0  0  0  0  0  0  0
  -31.3477   14.6009  -27.6365 C   0  0  0  0  0  0  0  0  0  0  0  0
  1  2  1  0
  2  3  1  0
  3  4  1  0
  4  5  2  0
  5  6  1  0
  6  7  2  0
  7  8  1  0
  8  9  2  0
  9 10  1  0
  9 11  1  0
 11 12  2  0
 12 13  1  0
 12 14  1  0
 14 15  2  0
  2 16  1  0
 16 17  2  0
 17 18  1  0
 18 19  2  0
 19 20  1  0
 20 21  2  0
 20 22  1  0
 22 23  1  0
 23 24  1  1
 24 25  1  0
 25 26  1  0
 26 27  2  0
 26 28  1  0
 23 29  1  0
 29 30  2  0
 29 31  1  0
 19 32  1  0
 32 33  2  0
 15  4  1  0
 33 16  1  0
 14  7  1  0
M  END
$$$$
