
     RDKit          3D

 39 44  0  0  0  0  0  0  0  0999 V2000
  -26.7003   15.8081  -29.4833 C   0  0  0  0  0  0  0  0  0  0  0  0
  -27.7326   16.8779  -29.8032 C   0  0  0  0  0  0  0  0  0  0  0  0
  -28.2471   17.3570  -28.5202 N   0  0  0  0  0  0  0  0  0  0  0  0
  -29.2487   16.7305  -27.9177 C   0  0  0  0  0  0  0  0  0  0  0  0
  -29.7442   15.7009  -28.4883 O   0  0  0  0  0  0  0  0  0  0  0  0
  -29.7778   17.1346  -26.7124 C   0  0  0  0  0  0  0  0  0  0  0  0
  -30.8774   16.4319  -26.0775 C   0  0  0  0  0  0  0  0  0  0  0  0
  -32.1377   17.0083  -25.9709 C   0  0  0  0  0  0  0  0  0  0  0  0
  -33.1848   16.3361  -25.3608 C   0  0  0  0  0  0  0  0  0  0  0  0
  -33.0323   15.0739  -24.8336 C   0  0  0  0  0  0  0  0  0  0  0  0
  -34.1420   14.3891  -24.1975 C   0  0  0  0  0  0  0  0  0  0  0  0
  -34.2256   13.1028  -23.7404 C   0  0  0  0  0  0  0  0  0  0  0  0
  -35.3682   12.7576  -23.2075 N   0  0  0  0  0  0  0  0  0  0  0  0
  -36.3349   13.4004  -23.0666 C   0  0  0  0  0  0  0  0  0  0  0  0
  -35.7334   15.0325  -23.8280 S   0  0  0  0  0  0  0  0  0  0  0  0
  -31.7931   14.4925  -24.9318 C   0  0  0  0  0  0  0  0  0  0  0  0
  -30.7364   15.1611  -25.5429 C   0  0  0  0  0  0  0  0  0  0  0  0
  -29.1515   14.4139  -25.6679 Cl  0  0  0  0  0  0  0  0  0  0  0  0
  -29.2044   18.2495  -26.1448 C   0  0  0  0  0  0  0  0  0  0  0  0
  -28.1556   18.9243  -26.7536 C   0  0  0  0  0  0  0  0  0  0  0  0
  -27.5675   20.0442  -26.2085 C   0  0  0  0  0  0  0  0  0  0  0  0
  -26.5590   20.6284  -26.8791 N   0  0  0  0  0  0  0  0  0  0  0  0
  -26.0950   20.1747  -28.0558 C   0  0  0  0  0  0  0  0  0  0  0  0
  -25.0195   20.8471  -28.7317 N   0  0  0  0  0  0  0  0  0  0  0  0
  -24.4790   20.3550  -29.9611 C   0  0  0  0  0  0  0  0  0  0  0  0
  -23.4016   20.9800  -30.5493 C   0  0  0  0  0  0  0  0  0  0  0  0
  -22.8509   20.5129  -31.7426 C   0  0  0  0  0  0  0  0  0  0  0  0
  -23.3639   19.4055  -32.3822 C   0  0  0  0  0  0  0  0  0  0  0  0
  -22.8066   18.9220  -33.6119 N   0  0  0  0  0  0  0  0  0  0  0  0
  -23.7068   18.4217  -34.6407 C   0  0  0  0  0  0  0  0  0  0  0  0
  -22.8777   17.4233  -35.4598 C   0  0  0  0  0  0  0  0  0  0  0  0
  -21.8860   18.1967  -36.1662 N   0  0  0  0  0  0  0  0  0  0  0  0
  -22.3556   18.8064  -37.3654 C   0  0  0  0  0  0  0  0  0  0  0  0
  -21.0588   18.9897  -35.3353 C   0  0  0  0  0  0  0  0  0  0  0  0
  -21.4047   18.9216  -33.8677 C   0  0  0  0  0  0  0  0  0  0  0  0
  -24.4414   18.7831  -31.7919 C   0  0  0  0  0  0  0  0  0  0  0  0
  -24.9972   19.2486  -30.5939 C   0  0  0  0  0  0  0  0  0  0  0  0
  -26.6737   19.0819  -28.5809 N   0  0  0  0  0  0  0  0  0  0  0  0
  -27.6985   18.4413  -27.9563 C   0  0  0  0  0  0  0  0  0  0  0  0
  1  2  1  0
  2  3  1  0
  3  4  1  0
  4  5  2  0
  4  6  1  0
  6  7  1  0
  7  8  2  0
  8  9  1  0
  9 10  2  0
 10 11  1  0
 11 12  2  0
 12 13  1  0
 13 14  2  0
 14 15  1  0
 10 16  1  0
 16 17  2  0
 17 18  1  0
  6 19  2  0
 19 20  1  0
 20 21  2  0
 21 22  1  0
 22 23  2  0
 23 24  1  0
 24 25  1  0
 25 26  2  0
 26 27  1  0
 27 28  2  0
 28 29  1  0
 29 30  1  0
 30 31  1  0
 31 32  1  0
 32 33  1  0
 32 34  1  0
 34 35  1  0
 28 36  1  0
 36 37  2  0
 23 38  1  0
 38 39  2  0
 39  3  1  0
 17  7  1  0
 39 20  1  0
 15 11  1  0
 37 25  1  0
 35 29  1  0
M  END
$$$$
