
     RDKit          3D

 27 28  0  0  0  0  0  0  0  0999 V2000
  -16.7487   14.9082  -29.9153 C   0  0  0  0  0  0  0  0  0  0  0  0
  -16.7025   14.3719  -31.2962 C   0  0  1  0  0  0  0  0  0  0  0  0
  -17.9507   14.2968  -31.9654 N   0  0  0  0  0  0  0  0  0  0  0  0
  -18.9222   15.2944  -31.7298 C   0  0  0  0  0  0  0  0  0  0  0  0
  -20.0785   15.0085  -32.6711 C   0  0  0  0  0  0  0  0  0  0  0  0
  -21.1979   15.9948  -32.5336 C   0  0  0  0  0  0  0  0  0  0  0  0
  -22.2486   15.6073  -33.5029 C   0  0  0  0  0  0  0  0  0  0  0  0
  -22.2111   16.1340  -34.7706 C   0  0  0  0  0  0  0  0  0  0  0  0
  -23.1791   15.7960  -35.7175 C   0  0  0  0  0  0  0  0  0  0  0  0
  -24.1758   14.9188  -35.3486 C   0  0  0  0  0  0  0  0  0  0  0  0
  -24.2475   14.3705  -34.0900 C   0  0  0  0  0  0  0  0  0  0  0  0
  -25.3347   13.4213  -33.7095 C   0  0  0  0  0  0  0  0  0  0  0  0
  -26.4706   13.6992  -34.4415 F   0  0  0  0  0  0  0  0  0  0  0  0
  -25.5910   13.4595  -32.3615 F   0  0  0  0  0  0  0  0  0  0  0  0
  -24.8883   12.1606  -34.1033 F   0  0  0  0  0  0  0  0  0  0  0  0
  -23.2597   14.7376  -33.1798 C   0  0  0  0  0  0  0  0  0  0  0  0
  -15.6675   14.9473  -32.1869 C   0  0  0  0  0  0  0  0  0  0  0  0
  -15.9503   15.7242  -33.2821 C   0  0  0  0  0  0  0  0  0  0  0  0
  -14.9607   16.2198  -34.0949 C   0  0  0  0  0  0  0  0  0  0  0  0
  -13.6545   15.9556  -33.8414 C   0  0  0  0  0  0  0  0  0  0  0  0
  -13.3626   15.1690  -32.7346 C   0  0  0  0  0  0  0  0  0  0  0  0
  -12.0209   14.8939  -32.4698 C   0  0  0  0  0  0  0  0  0  0  0  0
  -11.6929   14.1244  -31.3915 C   0  0  0  0  0  0  0  0  0  0  0  0
  -12.6459   13.6141  -30.5607 C   0  0  0  0  0  0  0  0  0  0  0  0
  -13.9804   13.8753  -30.8060 C   0  0  0  0  0  0  0  0  0  0  0  0
  -14.3240   14.6616  -31.9073 C   0  0  0  0  0  0  0  0  0  0  0  0
  -19.1035   14.8979  -32.7248 Cl  0  0  0  0  0  0  0  0  0  0  0  0
  2  1  1  1
  2  3  1  0
  3  4  1  0
  4  5  1  0
  5  6  1  0
  6  7  1  0
  7  8  2  0
  8  9  1  0
  9 10  2  0
 10 11  1  0
 11 12  1  0
 12 13  1  0
 12 14  1  0
 12 15  1  0
 11 16  2  0
  2 17  1  0
 17 18  2  0
 18 19  1  0
 19 20  2  0
 20 21  1  0
 21 22  2  0
 22 23  1  0
 23 24  2  0
 24 25  1  0
 25 26  2  0
 16  7  1  0
 26 17  1  0
 26 21  1  0
M  END
$$$$
