
     RDKit          3D

 13 14  0  0  0  0  0  0  0  0999 V2000
  -13.6882   -3.6237  -36.6916 C   0  0  0  0  0  0  0  0  0  0  0  0
  -12.8687   -3.5856  -35.8255 C   0  0  0  0  0  0  0  0  0  0  0  0
  -11.8386   -3.5544  -34.7635 C   0  0  0  0  0  0  0  0  0  0  0  0
  -12.4836   -3.0332  -33.5872 N   0  0  0  0  0  0  0  0  0  0  0  0
  -13.2977   -1.8806  -33.7927 C   0  0  1  0  0  0  0  0  0  0  0  0
  -14.5627   -2.0127  -32.9712 C   0  0  0  0  0  0  0  0  0  0  0  0
  -14.0107   -1.7583  -31.5733 C   0  0  0  0  0  0  0  0  0  0  0  0
  -13.1248   -0.5719  -31.8524 C   0  0  0  0  0  0  0  0  0  0  0  0
  -12.7025    0.4814  -31.0831 C   0  0  0  0  0  0  0  0  0  0  0  0
  -11.8841    1.4488  -31.5769 C   0  0  0  0  0  0  0  0  0  0  0  0
  -11.4599    1.3843  -32.8786 C   0  0  0  0  0  0  0  0  0  0  0  0
  -11.8915    0.3110  -33.6593 C   0  0  0  0  0  0  0  0  0  0  0  0
  -12.7144   -0.6611  -33.1621 C   0  0  0  0  0  0  0  0  0  0  0  0
  1  2  3  0
  2  3  1  0
  3  4  1  0
  5  4  1  1
  5  6  1  0
  6  7  1  0
  7  8  1  0
  8  9  2  0
  9 10  1  0
 10 11  2  0
 11 12  1  0
 12 13  2  0
 13  5  1  0
 13  8  1  0
M  END
$$$$
