
     RDKit          3D

 23 23  0  0  0  0  0  0  0  0999 V2000
  -21.8292   37.6349  -25.6780 C   0  0  0  0  0  0  0  0  0  0  0  0
  -20.5442   37.7588  -25.0030 N   0  0  0  0  0  0  0  0  0  0  0  0
  -19.8454   36.5065  -25.1753 C   0  0  0  0  0  0  0  0  0  0  0  0
  -18.5007   36.4872  -24.5298 C   0  0  0  0  0  0  0  0  0  0  0  0
  -18.5222   36.7174  -23.0354 C   0  0  0  0  0  0  0  0  0  0  0  0
  -19.0728   37.9434  -22.7255 O   0  0  0  0  0  0  0  0  0  0  0  0
  -18.5459   39.0358  -22.1246 C   0  0  0  0  0  0  0  0  0  0  0  0
  -17.2474   39.0656  -21.6984 C   0  0  0  0  0  0  0  0  0  0  0  0
  -16.6871   40.1767  -21.0795 C   0  0  0  0  0  0  0  0  0  0  0  0
  -17.4482   41.2923  -20.8805 C   0  0  0  0  0  0  0  0  0  0  0  0
  -16.8461   42.4803  -20.2178 C   0  0  0  0  0  0  0  0  0  0  0  0
  -17.3632   43.6628  -20.6846 F   0  0  0  0  0  0  0  0  0  0  0  0
  -15.4631   42.4305  -20.3769 F   0  0  0  0  0  0  0  0  0  0  0  0
  -17.0749   42.4390  -18.8493 F   0  0  0  0  0  0  0  0  0  0  0  0
  -18.7466   41.2985  -21.2924 C   0  0  0  0  0  0  0  0  0  0  0  0
  -19.2964   40.1941  -21.9053 C   0  0  0  0  0  0  0  0  0  0  0  0
  -19.2164   35.5736  -22.3868 C   0  0  0  0  0  0  0  0  0  0  0  0
  -18.4617   34.5432  -21.8175 C   0  0  0  0  0  0  0  0  0  0  0  0
  -19.0214   33.4625  -21.2022 C   0  0  0  0  0  0  0  0  0  0  0  0
  -20.3897   33.3741  -21.1341 C   0  0  0  0  0  0  0  0  0  0  0  0
  -21.1628   34.3920  -21.6960 C   0  0  0  0  0  0  0  0  0  0  0  0
  -20.5860   35.4757  -22.3131 C   0  0  0  0  0  0  0  0  0  0  0  0
  -18.8778   38.2127  -22.3196 Cl  0  0  0  0  0  0  0  0  0  0  0  0
  1  2  1  0
  2  3  1  0
  3  4  1  0
  4  5  1  0
  5  6  1  0
  6  7  1  0
  7  8  2  0
  8  9  1  0
  9 10  2  0
 10 11  1  0
 11 12  1  0
 11 13  1  0
 11 14  1  0
 10 15  1  0
 15 16  2  0
  5 17  1  0
 17 18  2  0
 18 19  1  0
 19 20  2  0
 20 21  1  0
 21 22  2  0
 16  7  1  0
 22 17  1  0
M  END
$$$$
