
     RDKit          3D

 26 27  0  0  0  0  0  0  0  0999 V2000
  -16.5954   44.7030  -22.4780 C   0  0  0  0  0  0  0  0  0  0  0  0
  -16.5568   43.5181  -21.6115 N   0  0  0  0  0  0  0  0  0  0  0  0
  -17.2139   42.3311  -22.0094 C   0  0  0  0  0  0  0  0  0  0  0  0
  -17.8196   42.3159  -23.1159 O   0  0  0  0  0  0  0  0  0  0  0  0
  -17.1691   41.1543  -21.1197 C   0  0  0  0  0  0  0  0  0  0  0  0
  -17.9662   40.1077  -21.6950 O   0  0  0  0  0  0  0  0  0  0  0  0
  -18.0856   38.9023  -21.0620 C   0  0  0  0  0  0  0  0  0  0  0  0
  -18.0016   38.8530  -19.8087 O   0  0  0  0  0  0  0  0  0  0  0  0
  -18.3114   37.6460  -21.8021 C   0  0  0  0  0  0  0  0  0  0  0  0
  -19.0082   36.6547  -21.2783 C   0  0  0  0  0  0  0  0  0  0  0  0
  -19.3227   35.4205  -21.9764 C   0  0  0  0  0  0  0  0  0  0  0  0
  -19.0712   35.1889  -23.3087 C   0  0  0  0  0  0  0  0  0  0  0  0
  -19.3967   33.9837  -23.9194 C   0  0  0  0  0  0  0  0  0  0  0  0
  -19.9875   32.9738  -23.2006 C   0  0  0  0  0  0  0  0  0  0  0  0
  -20.2538   33.1782  -21.8528 C   0  0  0  0  0  0  0  0  0  0  0  0
  -20.8609   32.1552  -21.0913 N   0  0  0  0  0  4  0  0  0  0  0  0
  -21.0887   32.3303  -19.8906 O   0  0  0  0  0  0  0  0  0  0  0  0
  -21.1962   30.9749  -21.6784 O   0  0  0  0  0  1  0  0  0  0  0  0
  -19.9154   34.3957  -21.2731 C   0  0  0  0  0  0  0  0  0  0  0  0
  -15.8560   43.5427  -20.3474 C   0  0  0  0  0  0  0  0  0  0  0  0
  -16.5996   44.3998  -19.4127 C   0  0  0  0  0  0  0  0  0  0  0  0
  -15.8936   45.6531  -19.0931 C   0  0  0  0  0  0  0  0  0  0  0  0
  -14.1853   45.0915  -19.1516 S   0  0  0  0  0  6  0  0  0  0  0  0
  -13.2547   46.1866  -19.4975 O   0  0  0  0  0  0  0  0  0  0  0  0
  -13.8669   44.4113  -17.8571 O   0  0  0  0  0  0  0  0  0  0  0  0
  -14.4229   43.9370  -20.4800 C   0  0  0  0  0  0  0  0  0  0  0  0
  1  2  1  0
  2  3  1  0
  3  4  2  0
  3  5  1  0
  5  6  1  0
  6  7  1  0
  7  8  2  0
  7  9  1  0
  9 10  2  0
 10 11  1  0
 11 12  2  0
 12 13  1  0
 13 14  2  0
 14 15  1  0
 15 16  1  0
 16 17  2  0
 16 18  1  0
 15 19  2  0
  2 20  1  0
 20 21  1  0
 21 22  1  0
 22 23  1  0
 23 24  2  0
 23 25  2  0
 23 26  1  0
 19 11  1  0
 26 20  1  0
M  CHG  2  16   1  18  -1
M  END
$$$$
