
     RDKit          3D

 22 23  0  0  0  0  0  0  0  0999 V2000
  -20.3331   19.0901  -34.4560 O   0  0  0  0  0  0  0  0  0  0  0  0
  -19.4514   19.6504  -33.7837 C   0  0  0  0  0  0  0  0  0  0  0  0
  -19.7294   20.9153  -33.2111 O   0  0  0  0  0  0  0  0  0  0  0  0
  -18.1158   19.0815  -33.5371 C   0  0  0  0  0  0  0  0  0  0  0  0
  -17.7597   18.8056  -32.2066 C   0  0  0  0  0  0  0  0  0  0  0  0
  -16.5441   18.2625  -31.8747 C   0  0  0  0  0  0  0  0  0  0  0  0
  -16.2018   17.9886  -30.5098 N   0  0  0  0  0  4  0  0  0  0  0  0
  -15.9600   16.8318  -30.1246 O   0  0  0  0  0  0  0  0  0  0  0  0
  -16.1256   18.9826  -29.5720 O   0  0  0  0  0  1  0  0  0  0  0  0
  -15.6632   17.9890  -32.8956 C   0  0  0  0  0  0  0  0  0  0  0  0
  -15.9706   18.2430  -34.2034 C   0  0  0  0  0  0  0  0  0  0  0  0
  -17.2078   18.7927  -34.5169 C   0  0  0  0  0  0  0  0  0  0  0  0
  -17.4887   19.0904  -35.8943 N   0  0  0  0  0  0  0  0  0  0  0  0
  -17.5185   18.0600  -36.9099 C   0  0  0  0  0  0  0  0  0  0  0  0
  -18.9304   17.8373  -37.3287 C   0  0  0  0  0  0  0  0  0  0  0  0
  -19.5005   16.5252  -36.8580 C   0  0  0  0  0  0  0  0  0  0  0  0
  -20.9011   16.3188  -37.2259 C   0  0  0  0  0  0  0  0  0  0  0  0
  -21.3436   15.4587  -38.2102 C   0  0  0  0  0  0  0  0  0  0  0  0
  -22.6766   15.3032  -38.5156 C   0  0  0  0  0  0  0  0  0  0  0  0
  -23.6329   16.0193  -37.8307 C   0  0  0  0  0  0  0  0  0  0  0  0
  -23.2150   16.8857  -36.8421 C   0  0  0  0  0  0  0  0  0  0  0  0
  -21.8742   17.0278  -36.5506 C   0  0  0  0  0  0  0  0  0  0  0  0
  1  2  2  0
  2  3  1  0
  2  4  1  0
  4  5  2  0
  5  6  1  0
  6  7  1  0
  7  8  2  0
  7  9  1  0
  6 10  2  0
 10 11  1  0
 11 12  2  0
 12 13  1  0
 13 14  1  0
 14 15  1  0
 15 16  1  0
 16 17  1  0
 17 18  2  0
 18 19  1  0
 19 20  2  0
 20 21  1  0
 21 22  2  0
 12  4  1  0
 22 17  1  0
M  CHG  2   7   1   9  -1
M  END
$$$$
