
     RDKit          3D

 36 39  0  0  0  0  0  0  0  0999 V2000
  -24.3702   14.2839  -33.0798 C   0  0  0  0  0  0  0  0  0  0  0  0
  -25.0662   15.6463  -33.1462 C   0  0  0  0  0  0  0  0  0  0  0  0
  -24.1373   16.7302  -32.7467 C   0  0  0  0  0  0  0  0  0  0  0  0
  -23.6984   16.7164  -31.5716 O   0  0  0  0  0  0  0  0  0  0  0  0
  -23.7254   17.7487  -33.5849 O   0  0  0  0  0  0  0  0  0  0  0  0
  -23.0749   17.5911  -34.8202 C   0  0  0  0  0  0  0  0  0  0  0  0
  -21.6487   17.2014  -34.6976 C   0  0  0  0  0  0  0  0  0  0  0  0
  -21.4516   16.0768  -34.3907 O   0  0  0  0  0  0  0  0  0  0  0  0
  -20.5079   18.2262  -34.9594 C   0  0  1  0  0  0  0  0  0  0  0  0
  -20.9952   18.9093  -36.0142 O   0  0  0  0  0  0  0  0  0  0  0  0
  -22.1122   19.1201  -36.6943 C   0  0  0  0  0  0  0  0  0  0  0  0
  -23.0953   19.3547  -35.9950 O   0  0  0  0  0  0  0  0  0  0  0  0
  -22.2900   19.1013  -38.1712 C   0  0  0  0  0  0  0  0  0  0  0  0
  -20.9337   18.9229  -38.8044 C   0  0  0  0  0  0  0  0  0  0  0  0
  -20.1817   18.9728  -33.7301 C   0  0  1  0  0  0  0  0  0  0  0  0
  -20.9908   18.7353  -32.5176 C   0  0  0  0  0  0  0  0  0  0  0  0
  -18.7215   18.6084  -33.4090 C   0  0  0  0  0  0  0  0  0  0  0  0
  -18.1733   18.2418  -34.7374 C   0  0  1  0  0  0  0  0  0  0  0  0
  -16.8787   17.4725  -34.7510 C   0  0  2  0  0  0  0  0  0  0  0  0
  -15.8348   18.4656  -34.2088 C   0  0  0  0  0  0  0  0  0  0  0  0
  -14.4186   18.0480  -34.5149 C   0  0  0  0  0  0  0  0  0  0  0  0
  -14.2567   17.6461  -35.9310 C   0  0  0  0  0  0  0  0  0  0  0  0
  -13.3274   18.1132  -36.7233 C   0  0  0  0  0  0  0  0  0  0  0  0
  -13.1610   17.7302  -38.1104 C   0  0  0  0  0  0  0  0  0  0  0  0
  -12.2725   18.1717  -38.8789 O   0  0  0  0  0  0  0  0  0  0  0  0
  -14.1004   16.7581  -38.6469 C   0  0  0  0  0  0  0  0  0  0  0  0
  -15.0353   16.2890  -37.8406 C   0  0  0  0  0  0  0  0  0  0  0  0
  -15.2269   16.6488  -36.4415 C   0  0  1  0  0  0  0  0  0  0  0  0
  -15.0433   15.4124  -35.5756 C   0  0  0  0  0  0  0  0  0  0  0  0
  -16.5642   17.2921  -36.2223 C   0  0  2  0  0  0  0  0  0  0  0  0
  -16.3622   18.9862  -36.8316 Cl  0  0  0  0  0  0  0  0  0  0  0  0
  -17.6411   16.7058  -37.0507 C   0  0  1  0  0  0  0  0  0  0  0  0
  -17.6495   15.3094  -37.1196 O   0  0  0  0  0  0  0  0  0  0  0  0
  -19.0158   17.2601  -36.7762 C   0  0  0  0  0  0  0  0  0  0  0  0
  -19.2930   17.4494  -35.3246 C   0  0  2  0  0  0  0  0  0  0  0  0
  -19.2470   16.0760  -34.6788 C   0  0  0  0  0  0  0  0  0  0  0  0
  1  2  1  0
  2  3  1  0
  3  4  2  0
  3  5  1  0
  5  6  1  0
  6  7  1  0
  7  8  2  0
  7  9  1  0
  9 10  1  6
 10 11  1  0
 11 12  2  0
 11 13  1  0
 13 14  1  0
  9 15  1  0
 15 16  1  1
 15 17  1  0
 18 17  1  1
 18 19  1  0
 19 20  1  1
 20 21  1  0
 21 22  1  0
 22 23  2  0
 23 24  1  0
 24 25  2  0
 24 26  1  0
 26 27  2  0
 27 28  1  0
 28 29  1  1
 28 30  1  0
 30 31  1  6
 30 32  1  0
 32 33  1  1
 32 34  1  0
 34 35  1  0
 35 36  1  1
 35  9  1  0
 35 18  1  0
 30 19  1  0
 28 22  1  0
M  END
$$$$
