
     RDKit          3D

 37 40  0  0  0  0  0  0  0  0999 V2000
  -15.5164   15.9891  -26.5825 C   0  0  0  0  0  0  0  0  0  0  0  0
  -15.5355   14.5374  -26.9388 C   0  0  0  0  0  0  0  0  0  0  0  0
  -14.8695   14.2747  -28.2417 C   0  0  0  0  0  0  0  0  0  0  0  0
  -15.0363   15.1688  -29.2808 C   0  0  0  0  0  0  0  0  0  0  0  0
  -14.4682   15.0316  -30.5295 C   0  0  0  0  0  0  0  0  0  0  0  0
  -14.6786   16.0074  -31.5862 C   0  0  0  0  0  0  0  0  0  0  0  0
  -14.3659   15.6469  -32.9886 C   0  0  0  0  0  0  0  0  0  0  0  0
  -15.1327   17.1996  -31.3799 N   0  0  0  0  0  0  0  0  0  0  0  0
  -16.3076   17.6537  -31.4046 O   0  0  0  0  0  0  0  0  0  0  0  0
  -17.5198   18.1254  -31.4096 C   0  0  0  0  0  0  0  0  0  0  0  0
  -18.5187   17.4752  -32.3172 C   0  0  0  0  0  0  0  0  0  0  0  0
  -18.8948   18.0235  -33.5147 C   0  0  0  0  0  0  0  0  0  0  0  0
  -19.8164   17.3835  -34.3092 C   0  0  0  0  0  0  0  0  0  0  0  0
  -20.4218   16.1531  -33.9574 C   0  0  0  0  0  0  0  0  0  0  0  0
  -21.3777   15.5474  -34.8576 C   0  0  0  0  0  0  0  0  0  0  0  0
  -22.5258   16.4391  -35.2841 C   0  0  0  0  0  0  0  0  0  0  0  0
  -23.7180   15.5014  -35.5527 C   0  0  0  0  0  0  0  0  0  0  0  0
  -23.2958   14.5423  -36.6328 C   0  0  0  0  0  0  0  0  0  0  0  0
  -22.1280   13.6939  -36.2462 C   0  0  0  0  0  0  0  0  0  0  0  0
  -20.9512   14.6739  -35.9667 C   0  0  0  0  0  0  0  0  0  0  0  0
  -20.0451   15.6061  -32.7610 C   0  0  0  0  0  0  0  0  0  0  0  0
  -20.6000   14.3469  -32.2984 C   0  0  0  0  0  0  0  0  0  0  0  0
  -19.7785   13.2508  -32.3294 F   0  0  0  0  0  0  0  0  0  0  0  0
  -21.9091   14.0933  -32.6667 F   0  0  0  0  0  0  0  0  0  0  0  0
  -20.7663   14.4884  -30.8867 F   0  0  0  0  0  0  0  0  0  0  0  0
  -19.0992   16.2818  -31.9653 C   0  0  0  0  0  0  0  0  0  0  0  0
  -13.6766   13.9119  -30.7406 C   0  0  0  0  0  0  0  0  0  0  0  0
  -13.4922   12.9960  -29.7119 C   0  0  0  0  0  0  0  0  0  0  0  0
  -14.0811   13.1761  -28.4804 C   0  0  0  0  0  0  0  0  0  0  0  0
  -13.8616   12.1878  -27.4306 C   0  0  0  0  0  0  0  0  0  0  0  0
  -12.6868   11.3819  -27.5921 N   0  0  0  0  0  0  0  0  0  0  0  0
  -12.0873   11.0682  -26.3111 C   0  0  0  0  0  0  0  0  0  0  0  0
  -10.7987   11.6944  -26.7579 C   0  0  0  0  0  0  0  0  0  0  0  0
   -9.7291   10.6850  -26.9373 C   0  0  0  0  0  0  0  0  0  0  0  0
   -8.8795   10.4213  -26.0495 O   0  0  0  0  0  0  0  0  0  0  0  0
   -9.6569    9.9965  -28.1375 O   0  0  0  0  0  0  0  0  0  0  0  0
  -11.5040   12.0888  -28.0383 C   0  0  0  0  0  0  0  0  0  0  0  0
  1  2  1  0
  2  3  1  0
  3  4  2  0
  4  5  1  0
  5  6  1  0
  6  7  1  0
  6  8  2  0
  8  9  1  0
  9 10  1  0
 10 11  1  0
 11 12  2  0
 12 13  1  0
 13 14  2  0
 14 15  1  0
 15 16  1  0
 16 17  1  0
 17 18  1  0
 18 19  1  0
 19 20  1  0
 14 21  1  0
 21 22  1  0
 22 23  1  0
 22 24  1  0
 22 25  1  0
 21 26  2  0
  5 27  2  0
 27 28  1  0
 28 29  2  0
 29 30  1  0
 30 31  1  0
 31 32  1  0
 32 33  1  0
 33 34  1  0
 34 35  2  0
 34 36  1  0
 33 37  1  0
 29  3  1  0
 37 31  1  0
 26 11  1  0
 20 15  1  0
M  END
$$$$
