
     RDKit          3D

 22 23  0  0  0  0  0  0  0  0999 V2000
  -18.6334   41.4706  -23.1348 C   0  0  0  0  0  0  0  0  0  0  0  0
  -17.8557   41.2774  -21.8335 C   0  0  0  0  0  0  0  0  0  0  0  0
  -17.1047   42.2168  -21.3772 N   0  0  0  0  0  0  0  0  0  0  0  0
  -16.4262   42.1590  -20.3358 C   0  0  0  0  0  0  0  0  0  0  0  0
  -15.5183   43.0528  -19.6262 C   0  0  0  0  0  0  0  0  0  0  0  0
  -14.3146   42.6312  -19.1481 C   0  0  0  0  0  0  0  0  0  0  0  0
  -13.4540   43.5367  -18.5053 C   0  0  0  0  0  0  0  0  0  0  0  0
  -13.8102   44.8670  -18.3487 C   0  0  0  0  0  0  0  0  0  0  0  0
  -13.0232   45.7706  -17.7483 O   0  0  0  0  0  0  0  0  0  0  0  0
  -12.0524   45.6887  -16.7776 C   0  0  0  0  0  0  0  0  0  0  0  0
  -12.0791   47.0344  -16.0298 C   0  0  0  0  0  0  0  0  0  0  0  0
  -11.2201   47.9881  -16.8912 C   0  0  0  0  0  0  0  0  0  0  0  0
  -11.3040   46.8336  -14.7492 C   0  0  0  0  0  0  0  0  0  0  0  0
  -15.0517   45.2879  -18.8437 C   0  0  0  0  0  0  0  0  0  0  0  0
  -15.4737   46.6825  -18.7236 C   0  0  0  0  0  0  0  0  0  0  0  0
  -15.7907   47.7785  -18.6435 N   0  0  0  0  0  0  0  0  0  0  0  0
  -15.8600   44.3759  -19.4603 C   0  0  0  0  0  0  0  0  0  0  0  0
  -16.8246   40.4844  -19.7591 S   0  0  0  0  0  0  0  0  0  0  0  0
  -17.9377   40.1021  -21.1385 C   0  0  0  0  0  0  0  0  0  0  0  0
  -18.6338   38.8643  -21.2929 C   0  0  0  0  0  0  0  0  0  0  0  0
  -19.0010   38.4846  -22.4290 O   0  0  0  0  0  0  0  0  0  0  0  0
  -18.9406   38.0300  -20.2366 O   0  0  0  0  0  0  0  0  0  0  0  0
  1  2  1  0
  2  3  1  0
  3  4  2  0
  4  5  1  0
  5  6  2  0
  6  7  1  0
  7  8  2  0
  8  9  1  0
  9 10  1  0
 10 11  1  0
 11 12  1  0
 11 13  1  0
  8 14  1  0
 14 15  1  0
 15 16  3  0
 14 17  2  0
  4 18  1  0
 18 19  1  0
 19 20  1  0
 20 21  2  0
 20 22  1  0
 19  2  2  0
 17  5  1  0
M  END
$$$$
