
     RDKit          3D

 23 24  0  0  0  0  0  0  0  0999 V2000
  -21.0220   38.1848  -26.7064 C   0  0  0  0  0  0  0  0  0  0  0  0
  -20.0645   37.7435  -25.6043 C   0  0  0  0  0  0  0  0  0  0  0  0
  -19.7901   38.8806  -24.6469 C   0  0  0  0  0  0  0  0  0  0  0  0
  -18.8954   38.4552  -23.6375 N   0  0  0  0  0  0  0  0  0  0  0  0
  -18.5399   39.4576  -22.6728 C   0  0  0  0  0  0  0  0  0  0  0  0
  -17.7015   40.5742  -23.2544 C   0  0  0  0  0  0  0  0  0  0  0  0
  -17.4381   41.5180  -22.0802 C   0  0  0  0  0  0  0  0  0  0  0  0
  -16.4310   41.5081  -21.2080 C   0  0  0  0  0  0  0  0  0  0  0  0
  -16.3849   42.4400  -20.2373 C   0  0  0  0  0  0  0  0  0  0  0  0
  -17.3588   43.3502  -20.1808 C   0  0  0  0  0  0  0  0  0  0  0  0
  -18.4157   42.8634  -21.5927 S   0  0  0  0  0  0  0  0  0  0  0  0
  -19.1756   37.2034  -23.0344 C   0  0  0  0  0  0  0  0  0  0  0  0
  -20.5250   37.1052  -22.3612 C   0  0  0  0  0  0  0  0  0  0  0  0
  -20.7637   35.6713  -21.9938 C   0  0  0  0  0  0  0  0  0  0  0  0
  -19.5547   34.8740  -21.7619 C   0  0  0  0  0  0  0  0  0  0  0  0
  -19.6774   33.5227  -21.5790 C   0  0  0  0  0  0  0  0  0  0  0  0
  -20.9297   32.9417  -21.6165 O   0  0  0  0  0  0  0  0  0  0  0  0
  -18.5667   32.7304  -21.3572 C   0  0  0  0  0  0  0  0  0  0  0  0
  -17.3031   33.3118  -21.3187 C   0  0  0  0  0  0  0  0  0  0  0  0
  -17.1580   34.6609  -21.4989 C   0  0  0  0  0  0  0  0  0  0  0  0
  -18.2947   35.4064  -21.7165 C   0  0  0  0  0  0  0  0  0  0  0  0
  -18.1687   36.8839  -21.9180 C   0  0  0  0  0  0  0  0  0  0  0  0
  -19.0813   37.0764  -22.6155 Cl  0  0  0  0  0  0  0  0  0  0  0  0
  1  2  1  0
  2  3  1  0
  3  4  1  0
  4  5  1  0
  5  6  1  0
  6  7  1  0
  7  8  2  0
  8  9  1  0
  9 10  2  0
 10 11  1  0
  4 12  1  0
 12 13  1  0
 13 14  1  0
 14 15  1  0
 15 16  2  0
 16 17  1  0
 16 18  1  0
 18 19  2  0
 19 20  1  0
 20 21  2  0
 21 22  1  0
 11  7  1  0
 22 12  1  0
 21 15  1  0
M  END
$$$$
