
     RDKit          3D

 41 45  0  0  0  0  0  0  0  0999 V2000
   -3.5758   14.2373  -11.7149 C   0  0  0  0  0  0  0  0  0  0  0  0
   -2.6380   13.3430  -12.2350 O   0  0  0  0  0  0  0  0  0  0  0  0
   -1.7473   13.7729  -13.2043 C   0  0  0  0  0  0  0  0  0  0  0  0
   -1.8015   15.0372  -13.6470 N   0  0  0  0  0  0  0  0  0  0  0  0
   -0.9674   15.5234  -14.5866 C   0  0  0  0  0  0  0  0  0  0  0  0
    0.0089   14.7482  -15.1619 C   0  0  0  0  0  0  0  0  0  0  0  0
    0.9487   15.2283  -16.1569 C   0  0  0  0  0  0  0  0  0  0  0  0
    2.2814   15.0921  -16.0095 N   0  0  0  0  0  0  0  0  0  0  0  0
    3.1413   15.5515  -16.9321 C   0  0  0  0  0  0  0  0  0  0  0  0
    4.5199   15.3920  -16.7392 N   0  0  0  0  0  0  0  0  0  0  0  0
    5.4995   15.4720  -17.8059 C   0  0  0  0  0  0  0  0  0  0  0  0
    6.7421   14.7746  -17.2953 C   0  0  0  0  0  0  0  0  0  0  0  0
    6.4699   13.5722  -16.6572 O   0  0  0  0  0  0  0  0  0  0  0  0
    5.6609   13.7024  -15.5349 C   0  0  0  0  0  0  0  0  0  0  0  0
    5.0938   15.1103  -15.4091 C   0  0  0  0  0  0  0  0  0  0  0  0
    2.7293   16.1715  -18.0532 N   0  0  0  0  0  0  0  0  0  0  0  0
    1.4152   16.3386  -18.2571 C   0  0  0  0  0  0  0  0  0  0  0  0
    1.0458   16.9928  -19.4135 C   0  0  0  0  0  0  0  0  0  0  0  0
    1.9931   17.4829  -20.4261 C   0  0  0  0  0  0  0  0  0  0  0  0
    1.4503   18.3830  -21.3902 N   0  0  0  0  0  0  0  0  0  0  0  0
    2.3600   19.4570  -21.6241 C   0  0  0  0  0  0  0  0  0  0  0  0
    3.2151   19.3428  -22.8356 C   0  0  0  0  0  0  0  0  0  0  0  0
    3.1786   18.0133  -23.5099 C   0  0  0  0  0  0  0  0  0  0  0  0
    3.7606   18.1561  -24.9065 C   0  0  0  0  0  0  0  0  0  0  0  0
    3.9175   16.8516  -25.6190 C   0  0  0  0  0  0  0  0  0  0  0  0
    2.8824   19.0572  -25.7676 C   0  0  0  0  0  0  0  0  0  0  0  0
    4.9927   18.8078  -24.7499 O   0  0  0  0  0  0  0  0  0  0  0  0
    1.7807   17.4751  -23.6672 C   0  0  0  0  0  0  0  0  0  0  0  0
    0.8640   17.7834  -22.5355 C   0  0  0  0  0  0  0  0  0  0  0  0
   -0.3148   17.1829  -19.6167 C   0  0  0  0  0  0  0  0  0  0  0  0
   -1.2331   16.7350  -18.6993 C   0  0  0  0  0  0  0  0  0  0  0  0
   -2.5752   16.9194  -18.8945 F   0  0  0  0  0  0  0  0  0  0  0  0
   -0.8312   16.0805  -17.5482 C   0  0  0  0  0  0  0  0  0  0  0  0
    0.5076   15.8689  -17.3080 C   0  0  0  0  0  0  0  0  0  0  0  0
    0.0637   13.4248  -14.6981 C   0  0  0  0  0  0  0  0  0  0  0  0
   -0.7884   12.9267  -13.7385 C   0  0  0  0  0  0  0  0  0  0  0  0
   -0.7236   11.5946  -13.2741 N   0  0  0  0  0  0  0  0  0  0  0  0
    0.2499   11.1297  -11.9346 S   0  0  0  0  0  6  0  0  0  0  0  0
   -0.3925   11.9806  -10.4911 C   0  0  0  0  0  0  0  0  0  0  0  0
    1.6799   11.5422  -12.1676 O   0  0  0  0  0  0  0  0  0  0  0  0
    0.1710    9.6444  -11.7243 O   0  0  0  0  0  0  0  0  0  0  0  0
  1  2  1  0
  2  3  1  0
  3  4  2  0
  4  5  1  0
  5  6  2  0
  6  7  1  0
  7  8  2  0
  8  9  1  0
  9 10  1  0
 10 11  1  0
 11 12  1  0
 12 13  1  0
 13 14  1  0
 14 15  1  0
  9 16  2  0
 16 17  1  0
 17 18  2  0
 18 19  1  0
 19 20  1  0
 20 21  1  0
 21 22  1  0
 22 23  1  0
 23 24  1  0
 24 25  1  0
 24 26  1  0
 24 27  1  0
 23 28  1  0
 28 29  1  0
 18 30  1  0
 30 31  2  0
 31 32  1  0
 31 33  1  0
 33 34  2  0
  6 35  1  0
 35 36  2  0
 36 37  1  0
 37 38  1  0
 38 39  1  0
 38 40  2  0
 38 41  2  0
 36  3  1  0
 34  7  1  0
 15 10  1  0
 34 17  1  0
 29 20  1  0
M  END
$$$$
