
     RDKit          3D

 32 36  0  0  0  0  0  0  0  0999 V2000
  -13.3911   17.9504  -36.6424 C   0  0  0  0  0  0  0  0  0  0  0  0
  -14.7986   17.7573  -36.0631 C   0  0  0  0  0  0  0  0  0  0  0  0
  -14.9688   18.6419  -34.8685 C   0  0  0  0  0  0  0  0  0  0  0  0
  -16.3290   18.5388  -34.2162 C   0  0  0  0  0  0  0  0  0  0  0  0
  -16.4464   17.3572  -33.3335 C   0  0  0  0  0  0  0  0  0  0  0  0
  -15.4703   16.6094  -33.0046 N   0  0  0  0  0  0  0  0  0  0  0  0
  -15.8798   15.5420  -32.1396 C   0  0  0  0  0  0  0  0  0  0  0  0
  -15.1801   15.6037  -30.7953 C   0  0  0  0  0  0  0  0  0  0  0  0
  -14.6526   14.2489  -30.4753 C   0  0  0  0  0  0  0  0  0  0  0  0
  -15.1582   13.3046  -31.5392 C   0  0  0  0  0  0  0  0  0  0  0  0
  -15.5729   14.1708  -32.7068 C   0  0  0  0  0  0  0  0  0  0  0  0
  -17.3384   15.7567  -32.0012 C   0  0  0  0  0  0  0  0  0  0  0  0
  -18.1138   15.0217  -31.3230 O   0  0  0  0  0  0  0  0  0  0  0  0
  -17.6461   16.9170  -32.7656 N   0  0  0  0  0  0  0  0  0  0  0  0
  -18.9996   17.4288  -32.8479 C   0  0  0  0  0  0  0  0  0  0  0  0
  -19.6449   17.2805  -34.1405 C   0  0  0  0  0  0  0  0  0  0  0  0
  -19.5567   16.0979  -34.8351 C   0  0  0  0  0  0  0  0  0  0  0  0
  -20.1527   15.9088  -36.0603 C   0  0  0  0  0  0  0  0  0  0  0  0
  -20.8871   16.9260  -36.6653 C   0  0  0  0  0  0  0  0  0  0  0  0
  -21.4953   16.7482  -37.9723 C   0  0  0  0  0  0  0  0  0  0  0  0
  -22.6515   15.9662  -38.0842 C   0  0  0  0  0  0  0  0  0  0  0  0
  -23.3322   15.7692  -39.2452 C   0  0  0  0  0  0  0  0  0  0  0  0
  -22.8425   16.3873  -40.3896 C   0  0  0  0  0  0  0  0  0  0  0  0
  -21.7183   17.1563  -40.3217 C   0  0  0  0  0  0  0  0  0  0  0  0
  -21.0249   17.3470  -39.1036 C   0  0  0  0  0  0  0  0  0  0  0  0
  -19.8156   18.1366  -39.2133 C   0  0  0  0  0  0  0  0  0  0  0  0
  -18.6841   17.7999  -39.9025 N   0  0  0  0  0  0  0  0  0  0  0  0
  -17.7874   18.7616  -39.8240 N   0  0  0  0  0  0  0  0  0  0  0  0
  -18.3241   19.7159  -39.0926 N   0  0  0  0  0  0  0  0  0  0  0  0
  -19.5630   19.3391  -38.7162 N   0  0  0  0  0  0  0  0  0  0  0  0
  -20.9796   18.1217  -35.9692 C   0  0  0  0  0  0  0  0  0  0  0  0
  -20.3712   18.2840  -34.7408 C   0  0  0  0  0  0  0  0  0  0  0  0
  1  2  1  0
  2  3  1  0
  3  4  1  0
  4  5  1  0
  5  6  2  0
  6  7  1  0
  7  8  1  0
  8  9  1  0
  9 10  1  0
 10 11  1  0
  7 12  1  0
 12 13  2  0
 12 14  1  0
 14 15  1  0
 15 16  1  0
 16 17  2  0
 17 18  1  0
 18 19  2  0
 19 20  1  0
 20 21  2  0
 21 22  1  0
 22 23  2  0
 23 24  1  0
 24 25  2  0
 25 26  1  0
 26 27  2  0
 27 28  1  0
 28 29  2  0
 29 30  1  0
 19 31  1  0
 31 32  2  0
 14  5  1  0
 32 16  1  0
 11  7  1  0
 25 20  1  0
 30 26  1  0
M  END
$$$$
