
     RDKit          3D

 25 27  0  0  0  0  0  0  0  0999 V2000
  -17.4549   19.1010  -38.5248 O   0  0  0  0  0  0  0  0  0  0  0  0
  -16.5818   18.5285  -37.8321 C   0  0  0  0  0  0  0  0  0  0  0  0
  -15.2392   18.5051  -38.2870 N   0  0  0  0  0  0  0  0  0  0  0  0
  -14.6485   17.3811  -38.9645 C   0  0  0  0  0  0  0  0  0  0  0  0
  -13.2171   17.5950  -39.2933 C   0  0  0  0  0  0  0  0  0  0  0  0
  -12.8971   18.0501  -40.5692 C   0  0  0  0  0  0  0  0  0  0  0  0
  -11.5809   18.2715  -40.9508 C   0  0  0  0  0  0  0  0  0  0  0  0
  -10.5368   18.0484  -40.0777 C   0  0  0  0  0  0  0  0  0  0  0  0
   -9.1151   18.2913  -40.4921 C   0  0  0  0  0  0  0  0  0  0  0  0
   -8.6546   17.1213  -41.0818 F   0  0  0  0  0  0  0  0  0  0  0  0
   -8.3201   18.5625  -39.3996 F   0  0  0  0  0  0  0  0  0  0  0  0
   -9.0130   19.2915  -41.4178 F   0  0  0  0  0  0  0  0  0  0  0  0
  -10.8490   17.5980  -38.8152 C   0  0  0  0  0  0  0  0  0  0  0  0
  -12.1684   17.3750  -38.4298 C   0  0  0  0  0  0  0  0  0  0  0  0
  -17.0114   17.9366  -36.6248 N   0  0  0  0  0  0  0  0  0  0  0  0
  -18.2443   17.2454  -36.4864 C   0  0  0  0  0  0  0  0  0  0  0  0
  -18.4873   16.0169  -37.0657 C   0  0  0  0  0  0  0  0  0  0  0  0
  -19.7043   15.3647  -36.9112 C   0  0  0  0  0  0  0  0  0  0  0  0
  -20.7056   15.9217  -36.1763 C   0  0  0  0  0  0  0  0  0  0  0  0
  -20.4973   17.1613  -35.5762 C   0  0  0  0  0  0  0  0  0  0  0  0
  -21.5164   17.7134  -34.8324 C   0  0  0  0  0  0  0  0  0  0  0  0
  -21.2836   18.9184  -34.2574 N   0  0  0  0  0  0  0  0  0  0  0  0
  -20.1106   19.5602  -34.3986 C   0  0  0  0  0  0  0  0  0  0  0  0
  -19.0670   19.0253  -35.1433 C   0  0  0  0  0  0  0  0  0  0  0  0
  -19.2852   17.7925  -35.7403 C   0  0  0  0  0  0  0  0  0  0  0  0
  1  2  2  0
  2  3  1  0
  3  4  1  0
  4  5  1  0
  5  6  2  0
  6  7  1  0
  7  8  2  0
  8  9  1  0
  9 10  1  0
  9 11  1  0
  9 12  1  0
  8 13  1  0
 13 14  2  0
  2 15  1  0
 15 16  1  0
 16 17  2  0
 17 18  1  0
 18 19  2  0
 19 20  1  0
 20 21  2  0
 21 22  1  0
 22 23  2  0
 23 24  1  0
 24 25  2  0
 14  5  1  0
 25 16  1  0
 25 20  1  0
M  END
$$$$
