
     RDKit          3D

 29 32  0  0  0  0  0  0  0  0999 V2000
  -18.3991   34.6105  -19.9458 C   0  0  0  0  0  0  0  0  0  0  0  0
  -18.4640   35.4691  -21.0387 O   0  0  0  0  0  0  0  0  0  0  0  0
  -18.3588   34.8051  -22.2449 C   0  0  1  0  0  0  0  0  0  0  0  0
  -19.7217   34.9614  -22.9439 C   0  0  0  0  0  0  0  0  0  0  0  0
  -20.1529   36.3772  -22.7371 C   0  0  0  0  0  0  0  0  0  0  0  0
  -19.1422   37.4495  -22.9560 C   0  0  2  0  0  0  0  0  0  0  0  0
  -19.6320   38.2838  -24.0322 N   0  0  0  0  0  0  0  0  0  0  0  0
  -20.4644   37.7677  -25.0740 C   0  0  0  0  0  0  0  0  0  0  0  0
  -20.4920   36.5416  -25.2858 O   0  0  0  0  0  0  0  0  0  0  0  0
  -21.2804   38.7192  -25.8820 C   0  0  0  0  0  0  0  0  0  0  0  0
  -20.5477   39.9687  -26.0798 N   0  0  0  0  0  0  0  0  0  0  0  0
  -19.7167   40.4871  -25.0438 C   0  0  0  0  0  0  0  0  0  0  0  0
  -19.3601   41.7791  -25.0294 N   0  0  0  0  0  0  0  0  0  0  0  0
  -18.5640   42.2966  -24.0453 C   0  0  0  0  0  0  0  0  0  0  0  0
  -18.1008   41.4932  -23.0285 C   0  0  0  0  0  0  0  0  0  0  0  0
  -17.2491   41.9963  -21.9554 C   0  0  0  0  0  0  0  0  0  0  0  0
  -16.5669   43.1950  -22.1544 C   0  0  0  0  0  0  0  0  0  0  0  0
  -15.7410   43.7294  -21.1755 C   0  0  0  0  0  0  0  0  0  0  0  0
  -15.5883   43.0638  -19.9778 C   0  0  0  0  0  0  0  0  0  0  0  0
  -14.7115   43.5965  -18.8924 C   0  0  0  0  0  0  0  0  0  0  0  0
  -13.9227   44.7838  -19.3387 C   0  0  0  0  0  0  0  0  0  0  0  0
  -13.7650   42.5285  -18.4240 C   0  0  0  0  0  0  0  0  0  0  0  0
  -15.4859   43.9792  -17.7801 O   0  0  0  0  0  0  0  0  0  0  0  0
  -16.2505   41.9099  -19.7975 N   0  0  0  0  0  0  0  0  0  0  0  0
  -17.0691   41.3691  -20.7528 C   0  0  0  0  0  0  0  0  0  0  0  0
  -18.4765   40.1946  -23.0689 N   0  0  0  0  0  0  0  0  0  0  0  0
  -19.2563   39.6573  -24.0206 C   0  0  0  0  0  0  0  0  0  0  0  0
  -17.7624   37.0098  -23.0603 C   0  0  0  0  0  0  0  0  0  0  0  0
  -17.4300   35.5559  -23.1840 C   0  0  0  0  0  0  0  0  0  0  0  0
  1  2  1  0
  3  2  1  1
  3  4  1  0
  4  5  1  0
  5  6  1  0
  6  7  1  6
  7  8  1  0
  8  9  2  0
  8 10  1  0
 10 11  1  0
 11 12  1  0
 12 13  2  0
 13 14  1  0
 14 15  2  0
 15 16  1  0
 16 17  2  0
 17 18  1  0
 18 19  2  0
 19 20  1  0
 20 21  1  0
 20 22  1  0
 20 23  1  0
 19 24  1  0
 24 25  2  0
 15 26  1  0
 26 27  2  0
  6 28  1  0
 28 29  1  0
 29  3  1  0
 27  7  1  0
 27 12  1  0
 25 16  1  0
M  END
$$$$
