
     RDKit          3D

 26 29  0  0  0  0  0  0  0  0999 V2000
   -8.5492    2.1828  -32.3353 C   0  0  0  0  0  0  0  0  0  0  0  0
   -9.8812    1.9024  -31.8296 N   0  0  0  0  0  0  0  0  0  0  0  0
  -10.9671    1.7335  -32.7198 C   0  0  0  0  0  0  0  0  0  0  0  0
  -10.7028    1.8429  -33.9536 O   0  0  0  0  0  0  0  0  0  0  0  0
  -12.3355    1.4486  -32.3098 C   0  0  0  0  0  0  0  0  0  0  0  0
  -13.3788    1.6799  -33.1817 C   0  0  0  0  0  0  0  0  0  0  0  0
  -14.6805    1.4249  -32.8336 C   0  0  0  0  0  0  0  0  0  0  0  0
  -14.9733    0.9240  -31.5835 C   0  0  0  0  0  0  0  0  0  0  0  0
  -16.2982    0.6572  -31.2099 O   0  0  0  0  0  0  0  0  0  0  0  0
  -17.2893    0.7016  -32.1710 C   0  0  0  0  0  0  0  0  0  0  0  0
  -17.7960    1.9240  -32.5473 C   0  0  0  0  0  0  0  0  0  0  0  0
  -18.7911    1.9616  -33.5130 C   0  0  0  0  0  0  0  0  0  0  0  0
  -19.2858    0.8180  -34.1045 C   0  0  0  0  0  0  0  0  0  0  0  0
  -18.7568   -0.3851  -33.7046 C   0  0  0  0  0  0  0  0  0  0  0  0
  -17.7682   -0.4548  -32.7484 C   0  0  0  0  0  0  0  0  0  0  0  0
  -19.1070   -1.7334  -34.1752 C   0  0  0  0  0  0  0  0  0  0  0  0
  -20.0501   -1.6393  -35.3770 C   0  0  0  0  0  0  0  0  0  0  0  0
  -19.4650   -0.7964  -36.3666 N   0  0  0  0  0  0  0  0  0  0  0  0
  -19.2699   -1.4467  -37.6377 C   0  0  0  0  0  0  0  0  0  0  0  0
  -19.2584   -2.9334  -37.6307 C   0  0  0  0  0  0  0  0  0  0  0  0
  -18.1484   -2.8748  -38.6897 C   0  0  0  0  0  0  0  0  0  0  0  0
  -17.8850   -1.4466  -38.1937 C   0  0  0  0  0  0  0  0  0  0  0  0
  -20.0125    0.5156  -36.4686 C   0  0  0  0  0  0  0  0  0  0  0  0
  -20.3449    1.0618  -35.1125 C   0  0  0  0  0  0  0  0  0  0  0  0
  -13.9482    0.7032  -30.7439 N   0  0  0  0  0  0  0  0  0  0  0  0
  -12.6651    0.9510  -31.0776 C   0  0  0  0  0  0  0  0  0  0  0  0
  1  2  1  0
  2  3  1  0
  3  4  2  0
  3  5  1  0
  5  6  2  0
  6  7  1  0
  7  8  2  0
  8  9  1  0
  9 10  1  0
 10 11  2  0
 11 12  1  0
 12 13  2  0
 13 14  1  0
 14 15  2  0
 14 16  1  0
 16 17  1  0
 17 18  1  0
 18 19  1  0
 19 20  1  0
 20 21  1  0
 21 22  1  0
 18 23  1  0
 23 24  1  0
  8 25  1  0
 25 26  2  0
 26  5  1  0
 15 10  1  0
 22 19  1  0
 24 13  1  0
M  END
$$$$
