
     RDKit          3D

 25 28  0  0  0  0  0  0  0  0999 V2000
  -34.1167   15.9104  -25.7332 C   0  0  0  0  0  0  0  0  0  0  0  0
  -32.9037   15.2601  -25.5104 O   0  0  0  0  0  0  0  0  0  0  0  0
  -31.6664   15.8323  -25.5731 C   0  0  0  0  0  0  0  0  0  0  0  0
  -31.4828   16.9884  -26.2917 C   0  0  0  0  0  0  0  0  0  0  0  0
  -30.2467   17.6183  -26.3929 C   0  0  0  0  0  0  0  0  0  0  0  0
  -29.1695   17.0429  -25.7367 C   0  0  0  0  0  0  0  0  0  0  0  0
  -29.3191   15.8835  -25.0072 C   0  0  0  0  0  0  0  0  0  0  0  0
  -30.5766   15.2874  -24.9338 C   0  0  0  0  0  0  0  0  0  0  0  0
  -30.7533   14.1473  -24.2240 F   0  0  0  0  0  0  0  0  0  0  0  0
  -27.7840   17.5504  -25.7187 C   0  0  0  0  0  0  0  0  0  0  0  0
  -26.8510   16.7352  -24.9405 C   0  0  0  0  0  0  0  0  0  0  0  0
  -26.3565   15.5744  -25.5095 C   0  0  0  0  0  0  0  0  0  0  0  0
  -25.4744   14.7501  -24.8460 C   0  0  0  0  0  0  0  0  0  0  0  0
  -25.0672   15.0857  -23.5750 C   0  0  0  0  0  0  0  0  0  0  0  0
  -25.5627   16.2393  -23.0177 C   0  0  0  0  0  0  0  0  0  0  0  0
  -26.4398   17.0578  -23.6790 C   0  0  0  0  0  0  0  0  0  0  0  0
  -27.0322   18.5048  -22.9213 Cl  0  0  0  0  0  0  0  0  0  0  0  0
  -27.3332   18.6079  -26.3038 N   0  0  0  0  0  0  0  0  0  0  0  0
  -27.9734   19.5860  -27.1150 C   0  0  0  0  0  0  0  0  0  0  0  0
  -27.3786   20.6524  -27.6692 C   0  0  0  0  0  0  0  0  0  0  0  0
  -25.9322   21.0065  -27.5340 C   0  0  0  0  0  0  0  0  0  0  0  0
  -28.3163   21.4051  -28.4072 N   0  0  0  0  0  0  0  0  0  0  0  0
  -29.5695   20.7566  -28.2980 N   0  0  0  0  0  0  0  0  0  0  0  0
  -29.3844   19.6139  -27.4940 C   0  0  0  0  0  0  0  0  0  0  0  0
  -30.3352   18.7942  -27.1942 N   0  0  0  0  0  0  0  0  0  0  0  0
  1  2  1  0
  2  3  1  0
  3  4  2  0
  4  5  1  0
  5  6  2  0
  6  7  1  0
  7  8  2  0
  8  9  1  0
  6 10  1  0
 10 11  1  0
 11 12  2  0
 12 13  1  0
 13 14  2  0
 14 15  1  0
 15 16  2  0
 16 17  1  0
 10 18  2  0
 18 19  1  0
 19 20  2  0
 20 21  1  0
 20 22  1  0
 22 23  1  0
 23 24  1  0
 24 25  2  0
  8  3  1  0
 16 11  1  0
 24 19  1  0
 25  5  1  0
M  END
$$$$
