
     RDKit          3D

 22 23  0  0  0  0  0  0  0  0999 V2000
  -16.4577   43.9862  -23.3433 C   0  0  0  0  0  0  0  0  0  0  0  0
  -17.4349   43.0238  -22.7686 C   0  0  0  0  0  0  0  0  0  0  0  0
  -17.9195   43.4816  -21.4384 C   0  0  0  0  0  0  0  0  0  0  0  0
  -18.6926   43.1390  -23.6954 C   0  0  0  0  0  0  0  0  0  0  0  0
  -17.0152   41.6210  -22.7409 C   0  0  0  0  0  0  0  0  0  0  0  0
  -15.8639   41.3672  -23.1987 O   0  0  0  0  0  0  0  0  0  0  0  0
  -17.7859   40.4902  -22.2401 C   0  0  0  0  0  0  0  0  0  0  0  0
  -17.3195   39.2558  -22.2562 C   0  0  0  0  0  0  0  0  0  0  0  0
  -18.0204   38.0539  -22.6764 C   0  0  0  0  0  0  0  0  0  0  0  0
  -19.0677   38.0301  -23.5599 C   0  0  0  0  0  0  0  0  0  0  0  0
  -19.6658   36.8379  -23.8672 C   0  0  0  0  0  0  0  0  0  0  0  0
  -19.2110   35.6814  -23.2887 C   0  0  0  0  0  0  0  0  0  0  0  0
  -18.1561   35.6458  -22.3896 C   0  0  0  0  0  0  0  0  0  0  0  0
  -17.6994   34.4418  -21.8005 N   0  0  0  0  0  4  0  0  0  0  0  0
  -18.4448   33.4550  -21.7821 O   0  0  0  0  0  0  0  0  0  0  0  0
  -16.4586   34.3597  -21.2591 O   0  0  0  0  0  1  0  0  0  0  0  0
  -17.5898   36.8742  -22.1152 C   0  0  0  0  0  0  0  0  0  0  0  0
  -19.0687   40.6763  -21.6013 N   0  0  0  0  0  0  0  0  0  0  0  0
  -20.1879   40.0543  -21.9627 C   0  0  0  0  0  0  0  0  0  0  0  0
  -21.1804   40.5526  -21.1513 N   0  0  0  0  0  0  0  0  0  0  0  0
  -20.6497   41.4551  -20.3242 C   0  0  0  0  0  0  0  0  0  0  0  0
  -19.3591   41.5029  -20.6290 N   0  0  0  0  0  0  0  0  0  0  0  0
  1  2  1  0
  2  3  1  0
  2  4  1  0
  2  5  1  0
  5  6  2  0
  5  7  1  0
  7  8  2  0
  8  9  1  0
  9 10  2  0
 10 11  1  0
 11 12  2  0
 12 13  1  0
 13 14  1  0
 14 15  2  0
 14 16  1  0
 13 17  2  0
  7 18  1  0
 18 19  1  0
 19 20  2  0
 20 21  1  0
 21 22  2  0
 17  9  1  0
 22 18  1  0
M  CHG  2  14   1  16  -1
M  END
$$$$
