
     RDKit          3D

 33 38  0  0  0  0  0  0  0  0999 V2000
  -17.8816   35.5564  -22.5041 C   0  0  0  0  0  0  0  0  0  0  0  0
  -17.8105   36.9680  -22.0426 C   0  0  0  0  0  0  0  0  0  0  0  0
  -17.8970   37.3354  -20.7160 C   0  0  0  0  0  0  0  0  0  0  0  0
  -17.7927   38.6850  -20.6931 C   0  0  0  0  0  0  0  0  0  0  0  0
  -17.6421   39.1456  -22.0078 C   0  0  0  0  0  0  0  0  0  0  0  0
  -17.4996   40.5235  -22.3440 C   0  0  0  0  0  0  0  0  0  0  0  0
  -17.0100   41.3428  -21.2541 N   0  0  0  0  0  0  0  0  0  0  0  0
  -16.3275   42.5272  -21.5866 C   0  0  0  0  0  0  0  0  0  0  0  0
  -15.4237   43.1156  -20.6944 C   0  0  0  0  0  0  0  0  0  0  0  0
  -14.8056   44.2845  -21.0339 C   0  0  0  0  0  0  0  0  0  0  0  0
  -15.1004   44.8317  -22.2396 C   0  0  0  0  0  0  0  0  0  0  0  0
  -16.0002   44.2753  -23.1645 C   0  0  0  0  0  0  0  0  0  0  0  0
  -16.6187   43.1074  -22.8308 C   0  0  0  0  0  0  0  0  0  0  0  0
  -17.5815   42.4722  -23.7031 N   0  0  0  0  0  0  0  0  0  0  0  0
  -18.2033   42.9881  -24.7630 C   0  0  0  0  0  0  0  0  0  0  0  0
  -17.9525   44.1800  -25.5568 C   0  0  0  0  0  0  0  0  0  0  0  0
  -16.8309   44.3652  -26.3056 C   0  0  0  0  0  0  0  0  0  0  0  0
  -16.6045   45.5578  -26.9358 C   0  0  0  0  0  0  0  0  0  0  0  0
  -17.4844   46.6282  -26.8524 C   0  0  0  0  0  0  0  0  0  0  0  0
  -18.6134   46.4275  -26.0927 C   0  0  0  0  0  0  0  0  0  0  0  0
  -18.8527   45.2378  -25.4560 C   0  0  0  0  0  0  0  0  0  0  0  0
  -19.2744   42.1415  -25.0912 C   0  0  0  0  0  0  0  0  0  0  0  0
  -20.2140   42.2434  -26.0732 C   0  0  0  0  0  0  0  0  0  0  0  0
  -20.2151   43.2001  -26.8931 O   0  0  0  0  0  0  0  0  0  0  0  0
  -21.1633   41.2687  -26.1432 N   0  0  0  0  0  0  0  0  0  0  0  0
  -22.1535   41.3921  -27.1946 C   0  0  0  0  0  0  0  0  0  0  0  0
  -21.1545   40.2578  -25.2670 C   0  0  0  0  0  0  0  0  0  0  0  0
  -22.0366   39.3680  -25.3453 O   0  0  0  0  0  0  0  0  0  0  0  0
  -20.2226   40.1327  -24.2703 N   0  0  0  0  0  0  0  0  0  0  0  0
  -20.3223   39.0618  -23.3150 C   0  0  0  0  0  0  0  0  0  0  0  0
  -19.2815   41.0871  -24.1968 C   0  0  0  0  0  0  0  0  0  0  0  0
  -18.1992   41.2931  -23.3279 C   0  0  0  0  0  0  0  0  0  0  0  0
  -17.6623   38.0724  -22.7470 O   0  0  0  0  0  0  0  0  0  0  0  0
  1  2  1  0
  2  3  2  0
  3  4  1  0
  4  5  2  0
  5  6  1  0
  6  7  1  0
  7  8  1  0
  8  9  2  0
  9 10  1  0
 10 11  2  0
 11 12  1  0
 12 13  2  0
 13 14  1  0
 14 15  1  0
 15 16  1  0
 16 17  2  0
 17 18  1  0
 18 19  2  0
 19 20  1  0
 20 21  2  0
 15 22  2  0
 22 23  1  0
 23 24  2  0
 23 25  1  0
 25 26  1  0
 25 27  1  0
 27 28  2  0
 27 29  1  0
 29 30  1  0
 29 31  1  0
 31 32  2  0
  5 33  1  0
 33  2  1  0
 32  6  1  0
 13  8  1  0
 32 14  1  0
 21 16  1  0
 31 22  1  0
M  END
$$$$
