
     RDKit          3D

 19 21  0  0  0  0  0  0  0  0999 V2000
  -19.4763   31.8714  -21.4676 O   0  0  0  0  0  0  0  0  0  0  0  0
  -19.4252   33.0605  -21.8730 C   0  0  0  0  0  0  0  0  0  0  0  0
  -18.4556   33.3926  -22.9773 C   0  0  0  0  0  0  0  0  0  0  0  0
  -18.0135   34.8210  -22.7183 C   0  0  0  0  0  0  0  0  0  0  0  0
  -19.2487   35.7031  -22.9140 C   0  0  0  0  0  0  0  0  0  0  0  0
  -18.8015   37.0453  -23.0180 N   0  0  0  0  0  0  0  0  0  0  0  0
  -19.0581   37.9673  -24.0522 C   0  0  0  0  0  0  0  0  0  0  0  0
  -19.7479   37.7103  -25.0642 O   0  0  0  0  0  0  0  0  0  0  0  0
  -18.3948   39.2229  -23.7311 C   0  0  0  0  0  0  0  0  0  0  0  0
  -18.3299   40.4332  -24.4026 C   0  0  0  0  0  0  0  0  0  0  0  0
  -17.6286   41.5160  -23.9050 C   0  0  0  0  0  0  0  0  0  0  0  0
  -16.9769   41.3735  -22.6998 C   0  0  0  0  0  0  0  0  0  0  0  0
  -17.0433   40.1676  -22.0336 C   0  0  0  0  0  0  0  0  0  0  0  0
  -17.7335   39.0831  -22.5114 C   0  0  0  0  0  0  0  0  0  0  0  0
  -17.9892   37.7044  -22.0566 C   0  0  0  0  0  0  0  0  0  0  0  0
  -17.5217   37.2672  -20.9755 O   0  0  0  0  0  0  0  0  0  0  0  0
  -20.1762   35.4265  -21.8288 C   0  0  0  0  0  0  0  0  0  0  0  0
  -20.8886   36.3374  -21.3544 O   0  0  0  0  0  0  0  0  0  0  0  0
  -20.2500   34.1035  -21.3265 N   0  0  0  0  0  0  0  0  0  0  0  0
  1  2  2  0
  2  3  1  0
  3  4  1  0
  4  5  1  0
  5  6  1  0
  6  7  1  0
  7  8  2  0
  7  9  1  0
  9 10  2  0
 10 11  1  0
 11 12  2  0
 12 13  1  0
 13 14  2  0
 14 15  1  0
 15 16  2  0
  5 17  1  0
 17 18  2  0
 17 19  1  0
 19  2  1  0
 15  6  1  0
 14  9  1  0
M  END
$$$$
