
     RDKit          3D

 33 34  0  0  0  0  0  0  0  0999 V2000
  -30.0986   25.5801  -33.5389 C   0  0  0  0  0  0  0  0  0  0  0  0
  -29.8940   24.3032  -32.7817 C   0  0  0  0  0  0  0  0  0  0  0  0
  -29.3922   23.1409  -33.2162 N   0  0  0  0  0  0  0  0  0  0  0  0
  -29.3918   22.2709  -32.2050 N   0  0  0  0  0  0  0  0  0  0  0  0
  -29.9051   22.9166  -31.1285 C   0  0  0  0  0  0  0  0  0  0  0  0
  -30.0767   22.2983  -29.7969 C   0  0  0  0  0  0  0  0  0  0  0  0
  -30.5709   23.0381  -28.9102 O   0  0  0  0  0  0  0  0  0  0  0  0
  -29.6971   20.9500  -29.5665 N   0  0  0  0  0  0  0  0  0  0  0  0
  -29.8620   20.3578  -28.2874 C   0  0  0  0  0  0  0  0  0  0  0  0
  -31.2638   20.3452  -27.7567 C   0  0  0  0  0  0  0  0  0  0  0  0
  -29.0675   21.2569  -27.3177 C   0  0  0  0  0  0  0  0  0  0  0  0
  -29.2942   18.9940  -28.1515 C   0  0  0  0  0  0  0  0  0  0  0  0
  -28.4968   18.7478  -27.1159 N   0  0  0  0  0  0  0  0  0  0  0  0
  -27.9171   17.5530  -26.8523 C   0  0  0  0  0  0  0  0  0  0  0  0
  -27.0671   17.4303  -25.6787 C   0  0  0  0  0  0  0  0  0  0  0  0
  -26.9229   18.4768  -24.9452 O   0  0  0  0  0  0  0  0  0  0  0  0
  -26.3714   16.2902  -25.2389 N   0  0  0  0  0  0  0  0  0  0  0  0
  -25.5363   16.2388  -24.0432 C   0  0  0  0  0  0  0  0  0  0  0  0
  -26.3073   16.1227  -22.7923 C   0  0  0  0  0  0  0  0  0  0  0  0
  -26.7048   14.8637  -22.3590 C   0  0  0  0  0  0  0  0  0  0  0  0
  -27.4137   14.7344  -21.1842 C   0  0  0  0  0  0  0  0  0  0  0  0
  -27.7281   15.8507  -20.4401 C   0  0  0  0  0  0  0  0  0  0  0  0
  -28.4234   15.6886  -19.2942 F   0  0  0  0  0  0  0  0  0  0  0  0
  -27.3456   17.1109  -20.8473 C   0  0  0  0  0  0  0  0  0  0  0  0
  -26.6317   17.2132  -22.0353 C   0  0  0  0  0  0  0  0  0  0  0  0
  -28.1939   16.5492  -27.7365 C   0  0  0  0  0  0  0  0  0  0  0  0
  -27.6677   15.2998  -27.5773 O   0  0  0  0  0  1  0  0  0  0  0  0
  -29.0276   16.7778  -28.8326 C   0  0  0  0  0  0  0  0  0  0  0  0
  -29.2858   15.8582  -29.6492 O   0  0  0  0  0  0  0  0  0  0  0  0
  -29.5510   17.9960  -29.0026 N   0  0  0  0  0  0  0  0  0  0  0  0
  -30.4441   18.2555  -30.1245 C   0  0  0  0  0  0  0  0  0  0  0  0
  -30.1896   24.1175  -31.5126 O   0  0  0  0  0  0  0  0  0  0  0  0
  -28.7056   19.2020  -27.2281 K   0  0  0  0  0 15  0  0  0  0  0  0
  1  2  1  0
  2  3  2  0
  3  4  1  0
  4  5  2  0
  5  6  1  0
  6  7  2  0
  6  8  1  0
  8  9  1  0
  9 10  1  0
  9 11  1  0
  9 12  1  0
 12 13  2  0
 13 14  1  0
 14 15  1  0
 15 16  2  0
 15 17  1  0
 17 18  1  0
 18 19  1  0
 19 20  2  0
 20 21  1  0
 21 22  2  0
 22 23  1  0
 22 24  1  0
 24 25  2  0
 14 26  2  0
 26 27  1  0
 26 28  1  0
 28 29  2  0
 28 30  1  0
 30 31  1  0
  5 32  1  0
 32  2  1  0
 30 12  1  0
 25 19  1  0
M  CHG  2  27  -1  33   1
M  END
$$$$
