
     RDKit          3D

 29 33  0  0  0  0  0  0  0  0999 V2000
  -18.3380   33.0689  -22.0414 O   0  0  0  0  0  0  0  0  0  0  0  0
  -17.9564   34.0371  -22.6856 C   0  0  0  0  0  0  0  0  0  0  0  0
  -17.4615   33.7270  -23.9720 O   0  0  0  0  0  0  0  0  0  0  0  0
  -17.9769   35.3837  -22.2498 C   0  0  0  0  0  0  0  0  0  0  0  0
  -16.7818   35.8766  -21.6970 C   0  0  0  0  0  0  0  0  0  0  0  0
  -16.7207   37.1403  -21.2112 C   0  0  0  0  0  0  0  0  0  0  0  0
  -17.8221   37.9296  -21.2612 C   0  0  0  0  0  0  0  0  0  0  0  0
  -17.7325   39.2864  -20.7321 C   0  0  0  0  0  0  0  0  0  0  0  0
  -17.2733   39.6946  -19.4797 C   0  0  0  0  0  0  0  0  0  0  0  0
  -17.3492   41.0228  -19.3829 N   0  0  0  0  0  0  0  0  0  0  0  0
  -17.8426   41.5285  -20.5231 C   0  0  0  0  0  0  0  0  0  0  0  0
  -18.1014   42.7981  -20.8991 N   0  0  0  0  0  0  0  0  0  0  0  0
  -18.6012   43.1081  -22.0943 C   0  0  0  0  0  0  0  0  0  0  0  0
  -18.8603   42.0699  -22.9762 C   0  0  0  0  0  0  0  0  0  0  0  0
  -19.4089   42.3908  -24.2894 C   0  0  0  0  0  0  0  0  0  0  0  0
  -18.9091   43.4604  -25.0160 C   0  0  0  0  0  0  0  0  0  0  0  0
  -19.3916   43.7957  -26.2457 C   0  0  0  0  0  0  0  0  0  0  0  0
  -20.4089   43.0566  -26.7974 C   0  0  0  0  0  0  0  0  0  0  0  0
  -20.9423   41.9828  -26.1179 C   0  0  0  0  0  0  0  0  0  0  0  0
  -20.4337   41.6607  -24.8656 C   0  0  0  0  0  0  0  0  0  0  0  0
  -18.6035   40.7415  -22.6183 C   0  0  0  0  0  0  0  0  0  0  0  0
  -18.0889   40.4546  -21.3808 C   0  0  0  0  0  0  0  0  0  0  0  0
  -18.9696   37.4353  -21.8008 C   0  0  0  0  0  0  0  0  0  0  0  0
  -19.1256   36.1407  -22.3285 C   0  0  0  0  0  0  0  0  0  0  0  0
  -20.3897   35.7745  -22.8989 C   0  0  0  0  0  0  0  0  0  0  0  0
  -21.3511   36.8317  -23.2964 C   0  0  0  0  0  0  0  0  0  0  0  0
  -22.6969   36.0849  -23.3266 C   0  0  0  0  0  0  0  0  0  0  0  0
  -22.2646   34.6148  -23.5270 C   0  0  0  0  0  0  0  0  0  0  0  0
  -21.1790   34.6324  -22.3998 C   0  0  0  0  0  0  0  0  0  0  0  0
  1  2  2  0
  2  3  1  0
  2  4  1  0
  4  5  2  0
  5  6  1  0
  6  7  2  0
  7  8  1  0
  8  9  2  0
  9 10  1  0
 10 11  1  0
 11 12  2  0
 12 13  1  0
 13 14  2  0
 14 15  1  0
 15 16  2  0
 16 17  1  0
 17 18  2  0
 18 19  1  0
 19 20  2  0
 14 21  1  0
 21 22  2  0
  7 23  1  0
 23 24  2  0
 24 25  1  0
 25 26  1  0
 26 27  1  0
 27 28  1  0
 28 29  1  0
 24  4  1  0
 29 25  1  0
 22  8  1  0
 22 11  1  0
 20 15  1  0
M  END
$$$$
