
     RDKit          3D

 31 34  0  0  0  0  0  0  0  0999 V2000
  -20.4400   -0.3035  -16.4200 C   0  0  0  0  0  0  0  0  0  0  0  0
  -19.2148    0.2982  -17.0529 C   0  0  0  0  0  0  0  0  0  0  0  0
  -18.0045   -0.2021  -16.5641 O   0  0  0  0  0  0  0  0  0  0  0  0
  -16.7487    0.1071  -17.0368 C   0  0  0  0  0  0  0  0  0  0  0  0
  -16.3587   -0.3485  -18.2768 C   0  0  0  0  0  0  0  0  0  0  0  0
  -15.1168   -0.0721  -18.8023 C   0  0  0  0  0  0  0  0  0  0  0  0
  -14.6806   -0.5400  -20.1198 C   0  0  0  0  0  0  0  0  0  0  0  0
  -13.8083    0.4112  -20.7846 N   0  0  0  0  0  0  0  0  0  0  0  0
  -12.3917    0.2352  -20.8155 C   0  0  0  0  0  0  0  0  0  0  0  0
  -11.5644    1.1730  -21.3890 C   0  0  0  0  0  0  0  0  0  0  0  0
  -10.1929    1.0450  -21.4419 C   0  0  0  0  0  0  0  0  0  0  0  0
   -9.3372    2.0939  -22.0769 C   0  0  0  0  0  0  0  0  0  0  0  0
   -9.6368   -0.0884  -20.8862 C   0  0  0  0  0  0  0  0  0  0  0  0
  -10.4739   -1.0311  -20.3091 C   0  0  0  0  0  0  0  0  0  0  0  0
  -11.8020   -0.8545  -20.2860 N   0  0  0  0  0  0  0  0  0  0  0  0
  -15.8102   -0.9206  -21.0042 C   0  0  0  0  0  0  0  0  0  0  0  0
  -16.9134   -1.5305  -20.4189 C   0  0  0  0  0  0  0  0  0  0  0  0
  -17.9877   -1.9101  -21.1958 C   0  0  0  0  0  0  0  0  0  0  0  0
  -17.9456   -1.6707  -22.5762 C   0  0  0  0  0  0  0  0  0  0  0  0
  -18.9996   -2.0382  -23.3661 C   0  0  0  0  0  0  0  0  0  0  0  0
  -18.9295   -1.7897  -24.7180 C   0  0  0  0  0  0  0  0  0  0  0  0
  -17.8213   -1.1797  -25.2887 C   0  0  0  0  0  0  0  0  0  0  0  0
  -16.8209   -0.8428  -24.4646 N   0  0  0  0  0  0  0  0  0  0  0  0
  -16.8393   -1.0635  -23.1349 C   0  0  0  0  0  0  0  0  0  0  0  0
  -15.7465   -0.6767  -22.3487 C   0  0  0  0  0  0  0  0  0  0  0  0
  -14.6317   -0.0677  -22.8909 O   0  0  0  0  0  0  0  0  0  0  0  0
  -14.2615    0.6921  -18.0265 C   0  0  0  0  0  0  0  0  0  0  0  0
  -14.6386    1.1480  -16.7968 C   0  0  0  0  0  0  0  0  0  0  0  0
  -15.8965    0.8556  -16.2897 C   0  0  0  0  0  0  0  0  0  0  0  0
  -16.3211    1.2948  -15.0525 O   0  0  0  0  0  0  0  0  0  0  0  0
  -15.5113    2.0818  -14.1964 C   0  0  0  0  0  0  0  0  0  0  0  0
  1  2  1  0
  2  3  1  0
  3  4  1  0
  4  5  2  0
  5  6  1  0
  6  7  1  0
  7  8  1  0
  8  9  1  0
  9 10  2  0
 10 11  1  0
 11 12  1  0
 11 13  2  0
 13 14  1  0
 14 15  2  0
  7 16  1  0
 16 17  2  0
 17 18  1  0
 18 19  2  0
 19 20  1  0
 20 21  2  0
 21 22  1  0
 22 23  2  0
 23 24  1  0
 24 25  2  0
 25 26  1  0
  6 27  2  0
 27 28  1  0
 28 29  2  0
 29 30  1  0
 30 31  1  0
 29  4  1  0
 15  9  1  0
 25 16  1  0
 24 19  1  0
M  END
$$$$
