
     RDKit          3D

 17 18  0  0  0  0  0  0  0  0999 V2000
   -6.5163    5.8864  -17.3201 N   0  0  0  0  0  0  0  0  0  0  0  0
   -6.6980    6.1734  -16.2132 C   0  0  0  0  0  0  0  0  0  0  0  0
   -6.9475    6.5205  -14.8040 C   0  0  0  0  0  0  0  0  0  0  0  0
   -8.3185    6.1197  -14.3787 C   0  0  0  0  0  0  0  0  0  0  0  0
   -9.1479    5.5415  -15.3279 C   0  0  0  0  0  0  0  0  0  0  0  0
  -10.4130    5.1714  -14.9361 C   0  0  0  0  0  0  0  0  0  0  0  0
  -10.8388    5.3741  -13.6283 C   0  0  0  0  0  0  0  0  0  0  0  0
  -12.4335    4.9181  -13.0968 Cl  0  0  0  0  0  0  0  0  0  0  0  0
   -9.9897    5.9514  -12.7092 C   0  0  0  0  0  0  0  0  0  0  0  0
   -8.7156    6.3318  -13.0760 C   0  0  0  0  0  0  0  0  0  0  0  0
   -6.7095    7.9643  -14.5439 C   0  0  0  0  0  0  0  0  0  0  0  0
   -5.5457    8.5141  -15.0314 C   0  0  0  0  0  0  0  0  0  0  0  0
   -5.2600    9.8470  -14.8274 C   0  0  0  0  0  0  0  0  0  0  0  0
   -6.1438   10.6315  -14.1323 C   0  0  0  0  0  0  0  0  0  0  0  0
   -7.3013   10.0319  -13.6617 C   0  0  0  0  0  0  0  0  0  0  0  0
   -8.4253   11.0512  -12.7720 Cl  0  0  0  0  0  0  0  0  0  0  0  0
   -7.5698    8.7362  -13.8651 N   0  0  0  0  0  0  0  0  0  0  0  0
  1  2  3  0
  2  3  1  0
  3  4  1  0
  4  5  2  0
  5  6  1  0
  6  7  2  0
  7  8  1  0
  7  9  1  0
  9 10  2  0
  3 11  1  0
 11 12  2  0
 12 13  1  0
 13 14  2  0
 14 15  1  0
 15 16  1  0
 15 17  2  0
 10  4  1  0
 17 11  1  0
M  END
$$$$
