
     RDKit          3D

 23 27  0  0  0  0  0  0  0  0999 V2000
  -20.7223   39.6104  -24.3312 N   0  0  0  0  0  0  0  0  0  0  0  0
  -19.9493   38.8554  -23.9184 C   0  0  0  0  0  0  0  0  0  0  0  0
  -18.9992   37.9162  -23.4332 C   0  0  2  0  0  0  0  0  0  0  0  0
  -19.6253   36.5335  -23.2270 C   0  0  0  0  0  0  0  0  0  0  0  0
  -18.5458   35.8354  -22.4426 C   0  0  1  0  0  0  0  0  0  0  0  0
  -17.1493   36.0307  -22.9985 C   0  0  0  0  0  0  0  0  0  0  0  0
  -17.6305   36.8907  -21.9378 C   0  0  1  0  0  0  0  0  0  0  0  0
  -18.3975   38.1439  -22.1738 N   0  0  0  0  0  0  0  0  0  0  0  0
  -18.3546   39.2000  -21.2342 C   0  0  0  0  0  0  0  0  0  0  0  0
  -17.5152   39.1203  -20.2975 O   0  0  0  0  0  0  0  0  0  0  0  0
  -19.2440   40.3420  -21.3377 C   0  0  1  0  0  0  0  0  0  0  0  0
  -19.8524   40.5350  -20.0438 N   0  0  0  0  0  0  0  0  0  0  0  0
  -18.6461   41.5975  -21.8582 C   0  0  1  0  0  0  0  0  0  0  0  0
  -17.2103   41.4402  -22.2976 C   0  0  0  0  0  0  0  0  0  0  0  0
  -16.6849   42.7661  -22.7621 C   0  0  2  0  0  0  0  0  0  0  0  0
  -16.8500   43.8624  -21.7619 C   0  0  0  0  0  0  0  0  0  0  0  0
  -18.3208   44.0531  -21.5119 C   0  0  1  0  0  0  0  0  0  0  0  0
  -19.0754   44.3511  -22.7682 C   0  0  0  0  0  0  0  0  0  0  0  0
  -18.8388   43.2318  -23.7601 C   0  0  1  0  0  0  0  0  0  0  0  0
  -19.5134   43.4311  -24.9494 O   0  0  0  0  0  0  0  0  0  0  0  0
  -17.3708   43.1656  -24.0497 C   0  0  0  0  0  0  0  0  0  0  0  0
  -19.3852   41.9678  -23.1300 C   0  0  0  0  0  0  0  0  0  0  0  0
  -18.8327   42.7413  -20.8971 C   0  0  0  0  0  0  0  0  0  0  0  0
  1  2  3  0
  3  2  1  1
  3  4  1  0
  5  4  1  6
  5  6  1  0
  7  6  1  6
  7  8  1  0
  8  9  1  0
  9 10  2  0
  9 11  1  0
 11 12  1  1
 11 13  1  0
 13 14  1  6
 15 14  1  1
 15 16  1  0
 17 16  1  6
 17 18  1  0
 18 19  1  0
 19 20  1  6
 19 21  1  0
 19 22  1  0
 17 23  1  0
  8  3  1  0
 22 13  1  0
  7  5  1  0
 23 13  1  0
 21 15  1  0
M  END
$$$$
