
     RDKit          3D

 36 39  0  0  0  0  0  0  0  0999 V2000
  -11.4295   -4.8729  -29.4689 C   0  0  0  0  0  0  0  0  0  0  0  0
  -12.8719   -4.5585  -29.6502 N   0  0  0  0  0  0  0  0  0  0  0  0
  -13.2697   -3.2522  -30.0289 C   0  0  0  0  0  0  0  0  0  0  0  0
  -12.3588   -2.4397  -30.1827 O   0  0  0  0  0  0  0  0  0  0  0  0
  -14.6802   -2.9385  -30.2098 C   0  0  0  0  0  0  0  0  0  0  0  0
  -15.6156   -3.9111  -29.8222 C   0  0  0  0  0  0  0  0  0  0  0  0
  -16.9707   -3.7932  -30.0002 C   0  0  0  0  0  0  0  0  0  0  0  0
  -17.4064   -2.6350  -30.6003 C   0  0  0  0  0  0  0  0  0  0  0  0
  -16.5670   -1.6531  -31.0000 C   0  0  0  0  0  0  0  0  0  0  0  0
  -15.1720   -1.8103  -30.7978 C   0  0  0  0  0  0  0  0  0  0  0  0
  -14.3522   -0.7510  -31.2103 N   0  0  0  0  0  0  0  0  0  0  0  0
  -14.4446    0.2075  -32.2138 C   0  0  0  0  0  0  0  0  0  0  0  0
  -15.4273    0.1846  -33.2081 C   0  0  0  0  0  0  0  0  0  0  0  0
  -15.5616    1.0946  -34.2058 C   0  0  0  0  0  0  0  0  0  0  0  0
  -16.6113    0.9749  -35.1762 N   0  0  0  0  0  0  0  0  0  0  0  0
  -17.6921    0.0823  -35.0105 C   0  0  0  0  0  0  0  0  0  0  0  0
  -17.5787   -0.9471  -34.1017 C   0  0  0  0  0  0  0  0  0  0  0  0
  -18.5870   -1.8607  -33.8805 C   0  0  0  0  0  0  0  0  0  0  0  0
  -19.7762   -1.7700  -34.5830 C   0  0  0  0  0  0  0  0  0  0  0  0
  -20.8305   -2.6806  -34.3846 N   0  0  0  0  0  0  0  0  0  0  0  0
  -21.9346   -2.8111  -35.3135 C   0  0  0  0  0  0  0  0  0  0  0  0
  -22.4224   -4.2565  -35.1867 C   0  0  0  0  0  0  0  0  0  0  0  0
  -22.9590   -4.5166  -33.9412 O   0  0  0  0  0  0  0  0  0  0  0  0
  -22.3618   -3.7895  -32.9318 C   0  0  0  0  0  0  0  0  0  0  0  0
  -20.8711   -3.5539  -33.2131 C   0  0  0  0  0  0  0  0  0  0  0  0
  -19.9045   -0.7479  -35.4937 C   0  0  0  0  0  0  0  0  0  0  0  0
  -18.8790    0.1719  -35.7109 C   0  0  0  0  0  0  0  0  0  0  0  0
  -19.0276    1.1975  -36.6352 O   0  0  0  0  0  0  0  0  0  0  0  0
  -20.3242    1.6512  -37.0093 C   0  0  0  0  0  0  0  0  0  0  0  0
  -14.6825    2.1083  -34.2533 N   0  0  0  0  0  0  0  0  0  0  0  0
  -13.7147    2.1755  -33.3159 C   0  0  0  0  0  0  0  0  0  0  0  0
  -13.5505    1.2684  -32.2905 C   0  0  0  0  0  0  0  0  0  0  0  0
  -12.4351    1.4507  -31.3159 C   0  0  0  0  0  0  0  0  0  0  0  0
  -11.5215    0.3993  -31.5141 F   0  0  0  0  0  0  0  0  0  0  0  0
  -11.7131    2.5861  -31.5101 F   0  0  0  0  0  0  0  0  0  0  0  0
  -12.8844    1.2548  -30.0244 F   0  0  0  0  0  0  0  0  0  0  0  0
  1  2  1  0
  2  3  1  0
  3  4  2  0
  3  5  1  0
  5  6  2  0
  6  7  1  0
  7  8  2  0
  8  9  1  0
  9 10  2  0
 10 11  1  0
 11 12  1  0
 12 13  2  0
 13 14  1  0
 14 15  1  0
 15 16  1  0
 16 17  2  0
 17 18  1  0
 18 19  2  0
 19 20  1  0
 20 21  1  0
 21 22  1  0
 22 23  1  0
 23 24  1  0
 24 25  1  0
 19 26  1  0
 26 27  2  0
 27 28  1  0
 28 29  1  0
 14 30  2  0
 30 31  1  0
 31 32  2  0
 32 33  1  0
 33 34  1  0
 33 35  1  0
 33 36  1  0
 10  5  1  0
 32 12  1  0
 27 16  1  0
 25 20  1  0
M  END
$$$$
