
     RDKit          3D

 23 25  0  0  0  0  0  0  0  0999 V2000
  -19.7179   36.3416  -25.3193 O   0  0  0  0  0  0  0  0  0  0  0  0
  -19.6791   37.5652  -25.0207 C   0  0  0  0  0  0  0  0  0  0  0  0
  -18.9227   38.0281  -23.9310 C   0  0  0  0  0  0  0  0  0  0  0  0
  -18.2477   37.0534  -23.2395 O   0  0  0  0  0  0  0  0  0  0  0  0
  -18.8547   39.3303  -23.5780 C   0  0  0  0  0  0  0  0  0  0  0  0
  -18.0823   39.8366  -22.4585 C   0  0  0  0  0  0  0  0  0  0  0  0
  -18.3752   39.3279  -21.1776 C   0  0  0  0  0  0  0  0  0  0  0  0
  -17.6960   39.7503  -20.0705 C   0  0  0  0  0  0  0  0  0  0  0  0
  -18.0208   39.2147  -18.8037 O   0  0  0  0  0  0  0  0  0  0  0  0
  -16.6902   40.6998  -20.1758 C   0  0  0  0  0  0  0  0  0  0  0  0
  -16.0481   41.0750  -18.9996 O   0  0  0  0  0  0  0  0  0  0  0  0
  -16.3718   41.2228  -21.4066 C   0  0  0  0  0  0  0  0  0  0  0  0
  -15.3702   42.1693  -21.5165 O   0  0  0  0  0  0  0  0  0  0  0  0
  -17.0839   40.7726  -22.5276 C   0  0  0  0  0  0  0  0  0  0  0  0
  -19.5586   40.1865  -24.3315 O   0  0  0  0  0  0  0  0  0  0  0  0
  -20.2755   39.8095  -25.3518 C   0  0  0  0  0  0  0  0  0  0  0  0
  -20.9776   40.7382  -26.0884 C   0  0  0  0  0  0  0  0  0  0  0  0
  -21.7452   40.3781  -27.1719 C   0  0  0  0  0  0  0  0  0  0  0  0
  -22.4375   41.3737  -27.8821 O   0  0  0  0  0  0  0  0  0  0  0  0
  -21.8169   39.0466  -27.5357 C   0  0  0  0  0  0  0  0  0  0  0  0
  -21.1266   38.0894  -26.8205 C   0  0  0  0  0  0  0  0  0  0  0  0
  -21.2187   36.7586  -27.2111 O   0  0  0  0  0  0  0  0  0  0  0  0
  -20.3704   38.4951  -25.7427 C   0  0  0  0  0  0  0  0  0  0  0  0
  1  2  2  0
  2  3  1  0
  3  4  1  0
  3  5  2  0
  5  6  1  0
  6  7  2  0
  7  8  1  0
  8  9  1  0
  8 10  2  0
 10 11  1  0
 10 12  1  0
 12 13  1  0
 12 14  2  0
  5 15  1  0
 15 16  1  0
 16 17  2  0
 17 18  1  0
 18 19  1  0
 18 20  2  0
 20 21  1  0
 21 22  1  0
 21 23  2  0
 23  2  1  0
 14  6  1  0
 23 16  1  0
M  END
$$$$
