
     RDKit          3D

 17 18  0  0  0  0  0  0  0  0999 V2000
  -16.6111   36.9745  -20.5993 O   0  0  0  0  0  0  0  0  0  0  0  0
  -17.1269   37.8736  -21.2775 N   0  0  0  0  0  4  0  0  0  0  0  0
  -17.5569   37.5777  -22.5440 O   0  0  0  0  0  1  0  0  0  0  0  0
  -17.2982   39.1811  -20.8260 N   0  0  0  0  0  0  0  0  0  0  0  0
  -17.8452   40.1076  -21.5772 C   0  0  0  0  0  0  0  0  0  0  0  0
  -18.3812   39.8643  -22.8476 N   0  0  0  0  0  0  0  0  0  0  0  0
  -19.3297   40.9198  -23.1503 C   0  0  0  0  0  0  0  0  0  0  0  0
  -18.7992   42.0652  -22.3012 C   0  0  0  0  0  0  0  0  0  0  0  0
  -17.9998   41.4852  -21.2716 N   0  0  0  0  0  0  0  0  0  0  0  0
  -17.4403   42.1233  -20.1342 C   0  0  0  0  0  0  0  0  0  0  0  0
  -16.2304   42.9169  -20.3983 C   0  0  0  0  0  0  0  0  0  0  0  0
  -14.9584   42.4262  -20.4181 C   0  0  0  0  0  0  0  0  0  0  0  0
  -13.9257   43.2938  -20.6807 C   0  0  0  0  0  0  0  0  0  0  0  0
  -14.1178   44.6409  -20.9255 C   0  0  0  0  0  0  0  0  0  0  0  0
  -12.7701   45.7184  -21.2575 Cl  0  0  0  0  0  0  0  0  0  0  0  0
  -15.3836   45.0959  -20.8993 N   0  0  0  0  0  0  0  0  0  0  0  0
  -16.4081   44.2653  -20.6447 C   0  0  0  0  0  0  0  0  0  0  0  0
  1  2  2  0
  2  3  1  0
  2  4  1  0
  4  5  2  0
  5  6  1  0
  6  7  1  0
  7  8  1  0
  8  9  1  0
  9 10  1  0
 10 11  1  0
 11 12  2  0
 12 13  1  0
 13 14  2  0
 14 15  1  0
 14 16  1  0
 16 17  2  0
  9  5  1  0
 17 11  1  0
M  CHG  2   2   1   3  -1
M  END
$$$$
