
     RDKit          3D

 22 20  0  0  0  0  0  0  0  0999 V2000
  -14.7437   10.4810  -28.6565 C   0  0  0  0  0  0  0  0  0  0  0  0
  -13.9739   11.7775  -28.5357 C   0  0  0  0  0  0  0  0  0  0  0  0
  -14.8173   12.8731  -28.2217 N   0  0  0  0  0  0  0  0  0  0  0  0
  -15.4234   12.9353  -26.9742 C   0  0  0  0  0  0  0  0  0  0  0  0
  -14.4968   13.1704  -25.8030 C   0  0  0  0  0  0  0  0  0  0  0  0
  -15.3713   13.4979  -29.3564 C   0  0  0  0  0  0  0  0  0  0  0  0
  -16.2652   14.6635  -29.1276 C   0  0  0  0  0  0  0  0  0  0  0  0
  -16.7291   15.2188  -30.4236 N   0  0  0  0  0  0  0  0  0  0  0  0
  -15.8231   15.7569  -31.3566 C   0  0  0  0  0  0  0  0  0  0  0  0
  -14.5645   15.7508  -31.0257 O   0  0  0  0  0  0  0  0  0  0  0  0
  -16.1852   16.3141  -32.6488 C   0  0  0  0  0  0  0  0  0  0  0  0
  -15.1328   16.8024  -33.4424 C   0  0  0  0  0  0  0  0  0  0  0  0
  -15.3762   17.3462  -34.6739 C   0  0  0  0  0  0  0  0  0  0  0  0
  -14.0602   17.9575  -35.6629 Cl  0  0  0  0  0  0  0  0  0  0  0  0
  -16.6786   17.4046  -35.1188 C   0  0  0  0  0  0  0  0  0  0  0  0
  -16.8901   17.9790  -36.4071 N   0  0  0  0  0  0  0  0  0  0  0  0
  -17.7116   16.9247  -34.3382 C   0  0  0  0  0  0  0  0  0  0  0  0
  -17.4758   16.3633  -33.0713 C   0  0  0  0  0  0  0  0  0  0  0  0
  -18.5675   15.9070  -32.3558 O   0  0  0  0  0  0  0  0  0  0  0  0
  -19.8829   15.9548  -32.7806 C   0  0  0  0  0  0  0  0  0  0  0  0
  -16.4065   14.9519  -31.2712 Cl  0  0  0  0  0  0  0  0  0  0  0  0
  -16.0123   14.3220  -31.0278 O   0  0  0  0  0  0  0  0  0  0  0  0
  1  2  1  0
  2  3  1  0
  3  4  1  0
  4  5  1  0
  3  6  1  0
  6  7  1  0
  7  8  1  0
  8  9  1  0
  9 10  2  0
  9 11  1  0
 11 12  2  0
 12 13  1  0
 13 14  1  0
 13 15  2  0
 15 16  1  0
 15 17  1  0
 17 18  2  0
 18 19  1  0
 19 20  1  0
 18 11  1  0
M  END
$$$$
