
     RDKit          3D

 46 53  0  0  0  0  0  0  0  0999 V2000
  -22.2700   47.4821  -17.3076 C   0  0  0  0  0  0  0  0  0  0  0  0
  -21.2031   47.2484  -16.4811 C   0  0  0  0  0  0  0  0  0  0  0  0
  -20.3826   48.3101  -16.1511 C   0  0  0  0  0  0  0  0  0  0  0  0
  -20.6090   49.5621  -16.6234 C   0  0  0  0  0  0  0  0  0  0  0  0
  -19.7517   50.7080  -16.3164 C   0  0  0  0  0  0  0  0  0  0  0  0
  -18.5153   50.3899  -15.6485 N   0  0  0  0  0  0  0  0  0  0  0  0
  -17.4159   49.7743  -16.0939 C   0  0  0  0  0  0  0  0  0  0  0  0
  -17.0558   49.3444  -17.4386 C   0  0  0  0  0  0  0  0  0  0  0  0
  -16.7195   47.9831  -17.5626 C   0  0  0  0  0  0  0  0  0  0  0  0
  -16.3562   47.4381  -18.7752 C   0  0  0  0  0  0  0  0  0  0  0  0
  -16.3125   48.2259  -19.9155 C   0  0  0  0  0  0  0  0  0  0  0  0
  -15.9674   47.7811  -21.1533 O   0  0  0  0  0  0  0  0  0  0  0  0
  -16.7816   47.5531  -22.2457 C   0  0  0  0  0  0  0  0  0  0  0  0
  -16.0692   46.9305  -23.4297 C   0  0  2  0  0  0  0  0  0  0  0  0
  -16.0118   48.0192  -24.4714 C   0  0  0  0  0  0  0  0  0  0  0  0
  -15.3041   47.4642  -25.7022 C   0  0  0  0  0  0  0  0  0  0  0  0
  -14.0748   48.1793  -26.1097 C   0  0  0  0  0  0  0  0  0  0  0  0
  -14.3932   49.6043  -26.1071 N   0  0  0  0  0  0  0  0  0  0  0  0
  -14.3777   49.9566  -24.6988 C   0  0  0  0  0  0  0  0  0  0  0  0
  -15.5538   49.3404  -24.0199 C   0  0  0  0  0  0  0  0  0  0  0  0
  -16.6141   45.6577  -23.8114 N   0  0  0  0  0  0  0  0  0  0  0  0
  -16.1770   44.4725  -23.3203 C   0  0  0  0  0  0  0  0  0  0  0  0
  -15.1295   44.0749  -22.3988 C   0  0  0  0  0  0  0  0  0  0  0  0
  -13.8327   43.7555  -22.7455 C   0  0  0  0  0  0  0  0  0  0  0  0
  -12.9008   43.3351  -21.8232 C   0  0  0  0  0  0  0  0  0  0  0  0
  -13.2667   43.2262  -20.5044 C   0  0  0  0  0  0  0  0  0  0  0  0
  -14.5545   43.5346  -20.1064 C   0  0  0  0  0  0  0  0  0  0  0  0
  -15.4647   43.9534  -21.0569 C   0  0  0  0  0  0  0  0  0  0  0  0
  -16.9535   43.5206  -23.9279 N   0  0  0  0  0  0  0  0  0  0  0  0
  -17.8179   44.0954  -24.7489 C   0  0  0  0  0  0  0  0  0  0  0  0
  -18.7995   43.5521  -25.5908 C   0  0  0  0  0  0  0  0  0  0  0  0
  -19.5901   44.3502  -26.3825 C   0  0  0  0  0  0  0  0  0  0  0  0
  -19.4095   45.7103  -26.3438 C   0  0  0  0  0  0  0  0  0  0  0  0
  -18.4343   46.2414  -25.5060 C   0  0  0  0  0  0  0  0  0  0  0  0
  -17.6239   45.4709  -24.6971 C   0  0  0  0  0  0  0  0  0  0  0  0
  -16.6481   49.5452  -19.7455 C   0  0  0  0  0  0  0  0  0  0  0  0
  -17.0190   50.1247  -18.5342 C   0  0  0  0  0  0  0  0  0  0  0  0
  -16.5488   49.6420  -15.0256 N   0  0  0  0  0  0  0  0  0  0  0  0
  -17.0914   50.1654  -13.9365 C   0  0  0  0  0  0  0  0  0  0  0  0
  -16.6840   50.3128  -12.6049 C   0  0  0  0  0  0  0  0  0  0  0  0
  -17.4849   50.9191  -11.6624 C   0  0  0  0  0  0  0  0  0  0  0  0
  -18.7298   51.3975  -12.0410 C   0  0  0  0  0  0  0  0  0  0  0  0
  -19.1064   51.2364  -13.3707 C   0  0  0  0  0  0  0  0  0  0  0  0
  -18.3199   50.6359  -14.3162 C   0  0  0  0  0  0  0  0  0  0  0  0
  -21.6849   49.7883  -17.4539 C   0  0  0  0  0  0  0  0  0  0  0  0
  -22.5049   48.7424  -17.7870 C   0  0  0  0  0  0  0  0  0  0  0  0
  1  2  2  0
  2  3  1  0
  3  4  2  0
  4  5  1  0
  5  6  1  0
  6  7  1  0
  7  8  1  0
  8  9  2  0
  9 10  1  0
 10 11  2  0
 11 12  1  0
 12 13  1  0
 14 13  1  1
 14 15  1  0
 15 16  1  0
 16 17  1  0
 17 18  1  0
 18 19  1  0
 19 20  1  0
 14 21  1  0
 21 22  1  0
 22 23  1  0
 23 24  2  0
 24 25  1  0
 25 26  2  0
 26 27  1  0
 27 28  2  0
 22 29  2  0
 29 30  1  0
 30 31  2  0
 31 32  1  0
 32 33  2  0
 33 34  1  0
 34 35  2  0
 11 36  1  0
 36 37  2  0
  7 38  2  0
 38 39  1  0
 39 40  2  0
 40 41  1  0
 41 42  2  0
 42 43  1  0
 43 44  2  0
  4 45  1  0
 45 46  2  0
 46  1  1  0
 44  6  1  0
 37  8  1  0
 44 39  1  0
 20 15  1  0
 35 21  1  0
 28 23  1  0
 35 30  1  0
M  END
$$$$
