
     RDKit          3D

 18 19  0  0  0  0  0  0  0  0999 V2000
  -18.0231   34.0446  -23.5427 C   0  0  0  0  0  0  0  0  0  0  0  0
  -18.1829   34.7326  -22.2064 C   0  0  0  0  0  0  0  0  0  0  0  0
  -19.5053   34.2933  -21.6319 C   0  0  0  0  0  0  0  0  0  0  0  0
  -19.6362   33.1734  -21.0880 O   0  0  0  0  0  0  0  0  0  0  0  0
  -20.5509   35.1979  -21.7444 O   0  0  0  0  0  0  0  0  0  0  0  0
  -18.1800   36.1933  -22.4570 C   0  0  0  0  0  0  0  0  0  0  0  0
  -18.9210   36.6955  -23.4981 C   0  0  0  0  0  0  0  0  0  0  0  0
  -18.9211   38.0697  -23.7332 C   0  0  0  0  0  0  0  0  0  0  0  0
  -18.1849   38.9312  -22.9318 C   0  0  0  0  0  0  0  0  0  0  0  0
  -18.2055   40.3632  -23.2032 C   0  0  0  0  0  0  0  0  0  0  0  0
  -19.3468   41.1325  -23.1293 C   0  0  0  0  0  0  0  0  0  0  0  0
  -19.3871   42.4861  -23.3818 C   0  0  0  0  0  0  0  0  0  0  0  0
  -18.2206   43.1224  -23.7308 C   0  0  0  0  0  0  0  0  0  0  0  0
  -17.0494   42.3880  -23.8172 C   0  0  0  0  0  0  0  0  0  0  0  0
  -17.0371   41.0351  -23.5594 C   0  0  0  0  0  0  0  0  0  0  0  0
  -17.4637   38.3951  -21.9106 C   0  0  0  0  0  0  0  0  0  0  0  0
  -16.7204   39.1872  -21.0882 F   0  0  0  0  0  0  0  0  0  0  0  0
  -17.4422   37.0218  -21.6480 C   0  0  0  0  0  0  0  0  0  0  0  0
  1  2  1  0
  2  3  1  0
  3  4  2  0
  3  5  1  0
  2  6  1  0
  6  7  2  0
  7  8  1  0
  8  9  2  0
  9 10  1  0
 10 11  2  0
 11 12  1  0
 12 13  2  0
 13 14  1  0
 14 15  2  0
  9 16  1  0
 16 17  1  0
 16 18  2  0
 18  6  1  0
 15 10  1  0
M  END
$$$$
