
     RDKit          3D

 25 28  0  0  0  0  0  0  0  0999 V2000
  -17.6481   50.2320  -16.4645 N   0  0  0  0  0  0  0  0  0  0  0  0
  -16.9810   49.9511  -17.7177 C   0  0  0  0  0  0  0  0  0  0  0  0
  -17.8169   50.2853  -18.9082 C   0  0  0  0  0  0  0  0  0  0  0  0
  -18.4992   49.0217  -19.3435 C   0  0  0  0  0  0  0  0  0  0  0  0
  -17.7717   47.9567  -18.7827 N   0  0  0  0  0  0  0  0  0  0  0  0
  -17.8973   46.5279  -18.9766 C   0  0  0  0  0  0  0  0  0  0  0  0
  -19.0321   45.8289  -18.6359 C   0  0  0  0  0  0  0  0  0  0  0  0
  -20.0771   46.4849  -18.0747 F   0  0  0  0  0  0  0  0  0  0  0  0
  -19.1609   44.4727  -18.8331 C   0  0  0  0  0  0  0  0  0  0  0  0
  -18.1484   43.7531  -19.3855 C   0  0  0  0  0  0  0  0  0  0  0  0
  -18.3088   42.3855  -19.5604 C   0  0  0  0  0  0  0  0  0  0  0  0
  -19.3848   41.8480  -19.2138 O   0  0  0  0  0  0  0  0  0  0  0  0
  -17.2537   41.7102  -20.1117 C   0  0  0  0  0  0  0  0  0  0  0  0
  -17.3683   40.2833  -20.3146 C   0  0  0  0  0  0  0  0  0  0  0  0
  -18.2277   39.6407  -19.6711 O   0  0  0  0  0  0  0  0  0  0  0  0
  -16.5717   39.5698  -21.1928 O   0  0  0  0  0  0  0  0  0  0  0  0
  -16.0997   42.3888  -20.4663 C   0  0  0  0  0  0  0  0  0  0  0  0
  -15.9538   43.7213  -20.2932 N   0  0  0  0  0  0  0  0  0  0  0  0
  -14.7042   44.3184  -20.7306 C   0  0  0  0  0  0  0  0  0  0  0  0
  -13.5654   44.2244  -19.6929 C   0  0  0  0  0  0  0  0  0  0  0  0
  -13.4925   43.5371  -21.0031 C   0  0  0  0  0  0  0  0  0  0  0  0
  -16.9721   44.4186  -19.7506 C   0  0  0  0  0  0  0  0  0  0  0  0
  -16.8584   45.7776  -19.5456 C   0  0  0  0  0  0  0  0  0  0  0  0
  -15.3918   46.5810  -19.9804 Cl  0  0  0  0  0  0  0  0  0  0  0  0
  -16.7925   48.4877  -17.8753 C   0  0  0  0  0  0  0  0  0  0  0  0
  1  2  1  0
  2  3  1  0
  3  4  1  0
  4  5  1  0
  5  6  1  0
  6  7  2  0
  7  8  1  0
  7  9  1  0
  9 10  2  0
 10 11  1  0
 11 12  2  0
 11 13  1  0
 13 14  1  0
 14 15  2  0
 14 16  1  0
 13 17  2  0
 17 18  1  0
 18 19  1  0
 19 20  1  0
 20 21  1  0
 18 22  1  0
 22 23  2  0
 23 24  1  0
  5 25  1  0
 25  2  1  0
 23  6  1  0
 22 10  1  0
 21 19  1  0
M  END
$$$$
