
     RDKit          3D

 17 17  0  0  0  0  0  0  0  0999 V2000
  -33.7125   15.6952  -26.6477 O   0  0  0  0  0  0  0  0  0  0  0  0
  -33.1974   15.8474  -27.7587 C   0  0  0  0  0  0  0  0  0  0  0  0
  -33.9935   15.2975  -28.8081 O   0  0  0  0  0  1  0  0  0  0  0  0
  -31.9833   16.4559  -28.1823 C   0  0  0  0  0  0  0  0  0  0  0  0
  -31.1182   17.0312  -27.3989 C   0  0  0  0  0  0  0  0  0  0  0  0
  -29.8851   17.6068  -28.0962 C   0  0  0  0  0  0  0  0  0  0  0  0
  -28.7309   16.6432  -27.8886 C   0  0  0  0  0  0  0  0  0  0  0  0
  -28.3029   16.4852  -26.4742 C   0  0  0  0  0  0  0  0  0  0  0  0
  -29.2432   15.7327  -25.6139 C   0  0  0  0  0  0  0  0  0  0  0  0
  -28.6520   14.6424  -24.9822 C   0  0  0  0  0  0  0  0  0  0  0  0
  -29.3673   13.8344  -24.1322 C   0  0  0  0  0  0  0  0  0  0  0  0
  -30.6917   14.0989  -23.8943 C   0  0  0  0  0  0  0  0  0  0  0  0
  -31.3072   15.1687  -24.5026 C   0  0  0  0  0  0  0  0  0  0  0  0
  -30.5799   15.9590  -25.3438 C   0  0  0  0  0  0  0  0  0  0  0  0
  -31.3371   17.0937  -25.9714 C   0  0  2  0  0  0  0  0  0  0  0  0
  -32.5609   17.3390  -25.4625 O   0  0  0  0  0  0  0  0  0  0  0  0
  -30.4028   16.0577  -26.3153 Na  0  0  0  0  0 15  0  0  0  0  0  0
  1  2  2  0
  2  3  1  0
  2  4  1  0
  4  5  2  0
  5  6  1  0
  6  7  1  0
  7  8  1  0
  8  9  1  0
  9 10  2  0
 10 11  1  0
 11 12  2  0
 12 13  1  0
 13 14  2  0
 14 15  1  0
 15 16  1  6
 15  5  1  0
 14  9  1  0
M  CHG  2   3  -1  17   1
M  END
$$$$
