
     RDKit          3D

 42 46  0  0  0  0  0  0  0  0999 V2000
  -32.2727   11.0154  -22.6079 C   0  0  0  0  0  0  0  0  0  0  0  0
  -32.6870   11.9817  -23.6878 C   0  0  0  0  0  0  0  0  0  0  0  0
  -31.8939   11.7911  -24.8789 N   0  0  0  0  0  0  0  0  0  0  0  0
  -32.4475   12.5689  -25.9774 C   0  0  0  0  0  0  0  0  0  0  0  0
  -32.3284   14.0365  -25.7524 C   0  0  0  0  0  0  0  0  0  0  0  0
  -31.0328   14.4177  -25.2691 N   0  0  0  0  0  0  0  0  0  0  0  0
  -30.5397   15.6934  -25.6879 C   0  0  0  0  0  0  0  0  0  0  0  0
  -29.4763   16.1793  -25.1788 O   0  0  0  0  0  0  0  0  0  0  0  0
  -31.2171   16.5054  -26.7146 C   0  0  0  0  0  0  0  0  0  0  0  0
  -30.4754   17.7741  -27.0235 C   0  0  0  0  0  0  0  0  0  0  0  0
  -30.3188   18.7386  -26.0575 C   0  0  0  0  0  0  0  0  0  0  0  0
  -29.6333   19.9317  -26.3617 C   0  0  0  0  0  0  0  0  0  0  0  0
  -29.1273   20.1350  -27.6012 C   0  0  0  0  0  0  0  0  0  0  0  0
  -28.4851   21.3190  -27.9816 N   0  0  0  0  0  0  0  0  0  0  0  0
  -27.1780   21.4234  -28.5265 C   0  0  0  0  0  0  0  0  0  0  0  0
  -26.5365   22.5536  -28.7876 N   0  0  0  0  0  0  0  0  0  0  0  0
  -25.3129   22.6192  -29.3667 C   0  0  0  0  0  0  0  0  0  0  0  0
  -24.7153   21.4028  -29.6990 C   0  0  0  0  0  0  0  0  0  0  0  0
  -23.4971   21.4220  -30.2771 F   0  0  0  0  0  0  0  0  0  0  0  0
  -25.3371   20.2095  -29.4507 C   0  0  0  0  0  0  0  0  0  0  0  0
  -24.7884   18.9623  -29.8175 N   0  0  0  0  0  0  0  0  0  0  0  0
  -25.3762   17.7231  -29.5886 C   0  0  0  0  0  0  0  0  0  0  0  0
  -24.5857   16.7350  -29.0324 C   0  0  0  0  0  0  0  0  0  0  0  0
  -25.1031   15.4672  -28.8117 C   0  0  0  0  0  0  0  0  0  0  0  0
  -26.4046   15.1510  -29.1341 C   0  0  0  0  0  0  0  0  0  0  0  0
  -26.8934   13.8202  -28.8877 C   0  0  0  0  0  0  0  0  0  0  0  0
  -26.6043   13.2636  -27.7847 O   0  0  0  0  0  0  0  0  0  0  0  0
  -27.6850   13.0335  -29.7640 N   0  0  0  0  0  0  0  0  0  0  0  0
  -28.1532   11.7405  -29.4174 C   0  0  0  0  0  0  0  0  0  0  0  0
  -29.4754   11.6119  -28.9785 C   0  0  0  0  0  0  0  0  0  0  0  0
  -30.0250   10.4214  -28.6299 C   0  0  0  0  0  0  0  0  0  0  0  0
  -29.2518    9.2864  -28.7098 C   0  0  0  0  0  0  0  0  0  0  0  0
  -27.9322    9.3826  -29.1435 C   0  0  0  0  0  0  0  0  0  0  0  0
  -27.3733   10.6129  -29.5007 C   0  0  0  0  0  0  0  0  0  0  0  0
  -25.7194   10.7422  -30.0391 Cl  0  0  0  0  0  0  0  0  0  0  0  0
  -27.1838   16.1330  -29.6834 C   0  0  0  0  0  0  0  0  0  0  0  0
  -26.6662   17.4204  -29.9102 C   0  0  0  0  0  0  0  0  0  0  0  0
  -26.5607   20.2528  -28.8652 N   0  0  0  0  0  0  0  0  0  0  0  0
  -29.2966   19.1378  -28.5682 C   0  0  0  0  0  0  0  0  0  0  0  0
  -29.9577   17.9685  -28.3018 C   0  0  0  0  0  0  0  0  0  0  0  0
  -30.2876   13.5901  -24.3783 C   0  0  0  0  0  0  0  0  0  0  0  0
  -30.5069   12.1443  -24.6560 C   0  0  0  0  0  0  0  0  0  0  0  0
  1  2  1  0
  2  3  1  0
  3  4  1  0
  4  5  1  0
  5  6  1  0
  6  7  1  0
  7  8  2  0
  7  9  1  0
  9 10  1  0
 10 11  2  0
 11 12  1  0
 12 13  2  0
 13 14  1  0
 14 15  1  0
 15 16  2  0
 16 17  1  0
 17 18  2  0
 18 19  1  0
 18 20  1  0
 20 21  1  0
 21 22  1  0
 22 23  2  0
 23 24  1  0
 24 25  2  0
 25 26  1  0
 26 27  2  0
 26 28  1  0
 28 29  1  0
 29 30  2  0
 30 31  1  0
 31 32  2  0
 32 33  1  0
 33 34  2  0
 34 35  1  0
 25 36  1  0
 36 37  2  0
 20 38  2  0
 13 39  1  0
 39 40  2  0
  6 41  1  0
 41 42  1  0
 42  3  1  0
 40 10  1  0
 38 15  1  0
 37 22  1  0
 34 29  1  0
M  END
$$$$
