
     RDKit          3D

 28 30  0  0  0  0  0  0  0  0999 V2000
  -20.5301   17.3939  -31.7889 N   0  0  0  0  0  0  0  0  0  0  0  0
  -21.6839   18.2223  -31.5934 C   0  0  0  0  0  0  0  0  0  0  0  0
  -22.2254   18.9313  -30.8756 N   0  0  0  0  0  0  0  0  0  0  0  0
  -23.3391   19.6022  -30.9414 C   0  0  0  0  0  0  0  0  0  0  0  0
  -23.9223   20.5191  -29.8796 C   0  0  0  0  0  0  0  0  0  0  0  0
  -25.1697   19.9927  -29.3099 C   0  0  0  0  0  0  0  0  0  0  0  0
  -25.6168   18.8970  -29.7998 O   0  0  0  0  0  0  0  0  0  0  0  0
  -25.9370   20.5578  -28.2809 N   0  0  0  0  0  0  0  0  0  0  0  0
  -27.1502   19.9673  -27.8448 C   0  0  0  0  0  0  0  0  0  0  0  0
  -27.2941   19.2128  -26.7079 C   0  0  0  0  0  0  0  0  0  0  0  0
  -28.5222   18.6602  -26.3369 C   0  0  0  0  0  0  0  0  0  0  0  0
  -29.6491   18.8499  -27.1006 C   0  0  0  0  0  0  0  0  0  0  0  0
  -30.9483   18.2472  -26.7462 C   0  0  0  0  0  0  0  0  0  0  0  0
  -30.9197   16.7693  -27.0910 C   0  0  0  0  0  0  0  0  0  0  0  0
  -32.1665   16.1873  -26.8012 N   0  0  0  0  0  0  0  0  0  0  0  0
  -32.3987   14.8234  -27.0409 C   0  0  0  0  0  0  0  0  0  0  0  0
  -32.1654   13.9376  -25.8804 C   0  0  2  0  0  0  0  0  0  0  0  0
  -31.3468   12.8529  -26.3345 O   0  0  0  0  0  0  0  0  0  0  0  0
  -33.3297   13.4001  -25.1908 C   0  0  0  0  0  0  0  0  0  0  0  0
  -33.7909   14.0905  -24.0753 C   0  0  0  0  0  0  0  0  0  0  0  0
  -34.9050   13.6435  -23.4241 C   0  0  0  0  0  0  0  0  0  0  0  0
  -35.5872   12.5051  -23.8619 C   0  0  0  0  0  0  0  0  0  0  0  0
  -35.1144   11.8339  -24.9702 C   0  0  0  0  0  0  0  0  0  0  0  0
  -34.0042   12.2601  -25.6375 C   0  0  0  0  0  0  0  0  0  0  0  0
  -29.5039   19.6197  -28.2597 C   0  0  0  0  0  0  0  0  0  0  0  0
  -28.2833   20.1566  -28.6090 C   0  0  0  0  0  0  0  0  0  0  0  0
  -24.0174   19.3934  -32.1929 C   0  0  0  0  0  0  0  0  0  0  0  0
  -22.9315   18.2723  -33.0446 S   0  0  0  0  0  0  0  0  0  0  0  0
  1  2  1  0
  2  3  2  0
  3  4  1  0
  4  5  1  0
  5  6  1  0
  6  7  2  0
  6  8  1  0
  8  9  1  0
  9 10  2  0
 10 11  1  0
 11 12  2  0
 12 13  1  0
 13 14  1  0
 14 15  1  0
 15 16  1  0
 16 17  1  0
 17 18  1  6
 17 19  1  0
 19 20  2  0
 20 21  1  0
 21 22  2  0
 22 23  1  0
 23 24  2  0
 12 25  1  0
 25 26  2  0
  4 27  2  0
 27 28  1  0
 28  2  1  0
 26  9  1  0
 24 19  1  0
M  END
$$$$
