
     RDKit          3D

 22 23  0  0  0  0  0  0  0  0999 V2000
  -18.6393   37.3070  -23.6823 C   0  0  0  0  0  0  0  0  0  0  0  0
  -18.3467   36.8052  -22.2777 C   0  0  0  0  0  0  0  0  0  0  0  0
  -17.1416   37.4896  -21.6929 C   0  0  0  0  0  0  0  0  0  0  0  0
  -17.3724   38.9659  -21.5542 C   0  0  0  0  0  0  0  0  0  0  0  0
  -16.7418   39.8459  -22.4071 C   0  0  0  0  0  0  0  0  0  0  0  0
  -16.9461   41.2274  -22.2964 C   0  0  0  0  0  0  0  0  0  0  0  0
  -17.7821   41.7389  -21.3324 C   0  0  0  0  0  0  0  0  0  0  0  0
  -17.9777   43.1305  -21.2332 O   0  0  0  0  0  0  0  0  0  0  0  0
  -18.4116   40.8666  -20.4816 C   0  0  0  0  0  0  0  0  0  0  0  0
  -19.2547   41.3882  -19.5101 O   0  0  0  0  0  0  0  0  0  0  0  0
  -18.2063   39.4899  -20.5942 C   0  0  0  0  0  0  0  0  0  0  0  0
  -18.1032   35.3310  -22.3754 C   0  0  0  0  0  0  0  0  0  0  0  0
  -16.6390   35.1017  -22.6831 C   0  0  0  0  0  0  0  0  0  0  0  0
  -18.5941   34.6255  -21.1693 C   0  0  0  0  0  0  0  0  0  0  0  0
  -19.6079   33.5616  -21.5121 C   0  0  0  0  0  0  0  0  0  0  0  0
  -20.9611   33.8100  -21.4708 C   0  0  0  0  0  0  0  0  0  0  0  0
  -21.8845   32.8077  -21.7930 C   0  0  0  0  0  0  0  0  0  0  0  0
  -21.4693   31.5553  -22.1574 C   0  0  0  0  0  0  0  0  0  0  0  0
  -22.3832   30.5490  -22.4805 O   0  0  0  0  0  0  0  0  0  0  0  0
  -20.1146   31.3010  -22.2005 C   0  0  0  0  0  0  0  0  0  0  0  0
  -19.6904   30.0329  -22.5694 O   0  0  0  0  0  0  0  0  0  0  0  0
  -19.2072   32.2979  -21.8803 C   0  0  0  0  0  0  0  0  0  0  0  0
  1  2  1  0
  2  3  1  0
  3  4  1  0
  4  5  2  0
  5  6  1  0
  6  7  2  0
  7  8  1  0
  7  9  1  0
  9 10  1  0
  9 11  2  0
  2 12  1  0
 12 13  1  0
 12 14  1  0
 14 15  1  0
 15 16  2  0
 16 17  1  0
 17 18  2  0
 18 19  1  0
 18 20  1  0
 20 21  1  0
 20 22  2  0
 11  4  1  0
 22 15  1  0
M  END
$$$$
