
     RDKit          3D

 26 28  0  0  0  0  0  0  0  0999 V2000
  -23.7186   24.1825  -31.0076 C   0  0  0  0  0  0  0  0  0  0  0  0
  -24.4043   23.1977  -31.7122 O   0  0  0  0  0  0  0  0  0  0  0  0
  -25.6487   22.6794  -31.3736 C   0  0  0  0  0  0  0  0  0  0  0  0
  -25.8222   21.5925  -30.5382 C   0  0  0  0  0  0  0  0  0  0  0  0
  -27.0548   21.0908  -30.2159 C   0  0  0  0  0  0  0  0  0  0  0  0
  -27.2380   19.9604  -29.3481 C   0  0  0  0  0  0  0  0  0  0  0  0
  -26.9795   18.6541  -29.7108 C   0  0  0  0  0  0  0  0  0  0  0  0
  -27.1534   17.6094  -28.8880 N   0  0  0  0  0  0  0  0  0  0  0  0
  -26.8683   16.2442  -29.3418 C   0  0  0  0  0  0  0  0  0  0  0  0
  -27.6009   17.8527  -27.6470 C   0  0  0  0  0  0  0  0  0  0  0  0
  -27.7650   16.8869  -26.8771 O   0  0  0  0  0  0  0  0  0  0  0  0
  -27.8754   19.1344  -27.2275 C   0  0  0  0  0  0  0  0  0  0  0  0
  -28.3325   19.3695  -25.9422 C   0  0  0  0  0  0  0  0  0  0  0  0
  -28.5938   20.6407  -25.5530 N   0  0  0  0  0  0  0  0  0  0  0  0
  -28.4269   21.6936  -26.3709 C   0  0  0  0  0  0  0  0  0  0  0  0
  -27.9764   21.4989  -27.6458 C   0  0  0  0  0  0  0  0  0  0  0  0
  -27.7019   20.2136  -28.0650 C   0  0  0  0  0  0  0  0  0  0  0  0
  -28.1855   21.7050  -30.7535 C   0  0  0  0  0  0  0  0  0  0  0  0
  -29.4308   21.2311  -30.4529 O   0  0  0  0  0  0  0  0  0  0  0  0
  -30.6400   21.5211  -31.0778 C   0  0  0  0  0  0  0  0  0  0  0  0
  -28.0104   22.7932  -31.5874 C   0  0  0  0  0  0  0  0  0  0  0  0
  -26.7624   23.2860  -31.9043 C   0  0  0  0  0  0  0  0  0  0  0  0
  -26.5807   24.4617  -32.8188 C   0  0  0  0  0  0  0  0  0  0  0  0
  -27.4271   24.3118  -33.9977 N   0  0  0  0  0  0  0  0  0  0  0  0
  -26.5480   23.8332  -35.0643 C   0  0  0  0  0  0  0  0  0  0  0  0
  -28.0415   25.5876  -34.3535 C   0  0  0  0  0  0  0  0  0  0  0  0
  1  2  1  0
  2  3  1  0
  3  4  2  0
  4  5  1  0
  5  6  1  0
  6  7  2  0
  7  8  1  0
  8  9  1  0
  8 10  1  0
 10 11  2  0
 10 12  1  0
 12 13  2  0
 13 14  1  0
 14 15  2  0
 15 16  1  0
 16 17  2  0
  5 18  2  0
 18 19  1  0
 19 20  1  0
 18 21  1  0
 21 22  2  0
 22 23  1  0
 23 24  1  0
 24 25  1  0
 24 26  1  0
 22  3  1  0
 17  6  1  0
 17 12  1  0
M  END
$$$$
