
     RDKit          3D

 19 20  0  0  0  0  0  0  0  0999 V2000
  -20.3120   32.3829  -23.2239 O   0  0  0  0  0  0  0  0  0  0  0  0
  -19.6604   32.5340  -22.1578 C   0  0  0  0  0  0  0  0  0  0  0  0
  -19.5931   31.4497  -21.2940 O   0  0  0  0  0  0  0  0  0  0  0  0
  -19.0113   33.8180  -21.8710 C   0  0  0  0  0  0  0  0  0  0  0  0
  -19.1655   34.8980  -22.8806 C   0  0  0  0  0  0  0  0  0  0  0  0
  -18.4407   36.1549  -22.5712 C   0  0  0  0  0  0  0  0  0  0  0  0
  -17.2423   36.3176  -21.9081 C   0  0  0  0  0  0  0  0  0  0  0  0
  -16.4245   35.2779  -21.2479 C   0  0  0  0  0  0  0  0  0  0  0  0
  -15.4184   35.5394  -20.5733 O   0  0  0  0  0  0  0  0  0  0  0  0
  -16.7985   33.9532  -21.3888 O   0  0  0  0  0  0  0  0  0  0  0  0
  -16.9433   37.6309  -21.9325 N   0  0  0  0  0  0  0  0  0  0  0  0
  -17.8824   38.3318  -22.5723 C   0  0  0  0  0  0  0  0  0  0  0  0
  -18.0315   39.6900  -22.8580 C   0  0  0  0  0  0  0  0  0  0  0  0
  -19.1233   40.1296  -23.5463 C   0  0  0  0  0  0  0  0  0  0  0  0
  -19.2765   41.8604  -23.8880 Cl  0  0  0  0  0  0  0  0  0  0  0  0
  -20.0880   39.2484  -23.9673 C   0  0  0  0  0  0  0  0  0  0  0  0
  -19.9255   37.9048  -23.6762 C   0  0  0  0  0  0  0  0  0  0  0  0
  -21.1872   36.8436  -24.2423 Cl  0  0  0  0  0  0  0  0  0  0  0  0
  -18.8367   37.4258  -22.9835 C   0  0  0  0  0  0  0  0  0  0  0  0
  1  2  2  0
  2  3  1  0
  2  4  1  0
  4  5  1  0
  5  6  1  0
  6  7  2  0
  7  8  1  0
  8  9  2  0
  8 10  1  0
  7 11  1  0
 11 12  1  0
 12 13  2  0
 13 14  1  0
 14 15  1  0
 14 16  2  0
 16 17  1  0
 17 18  1  0
 17 19  2  0
 19  6  1  0
 19 12  1  0
M  END
$$$$
