
     RDKit          3D

 33 36  0  0  0  0  0  0  0  0999 V2000
  -12.8672   -6.6509  -30.7402 C   0  0  0  0  0  0  0  0  0  0  0  0
  -13.8514   -5.7434  -31.1601 O   0  0  0  0  0  0  0  0  0  0  0  0
  -13.6644   -5.0588  -32.3685 C   0  0  0  0  0  0  0  0  0  0  0  0
  -13.6229   -5.7521  -33.5480 C   0  0  0  0  0  0  0  0  0  0  0  0
  -13.4380   -5.0530  -34.7149 C   0  0  0  0  0  0  0  0  0  0  0  0
  -13.3987   -5.7700  -35.9097 O   0  0  0  0  0  0  0  0  0  0  0  0
  -13.5202   -5.1722  -37.1667 C   0  0  0  0  0  0  0  0  0  0  0  0
  -13.2968   -3.6799  -34.6835 C   0  0  0  0  0  0  0  0  0  0  0  0
  -13.3330   -2.9417  -33.4966 C   0  0  0  0  0  0  0  0  0  0  0  0
  -13.2967   -1.5397  -33.5040 N   0  0  0  0  0  0  0  0  0  0  0  0
  -12.0600   -0.9026  -33.9791 C   0  0  0  0  0  0  0  0  0  0  0  0
  -11.0378   -0.8101  -32.9017 C   0  0  0  0  0  0  0  0  0  0  0  0
   -9.8518   -0.1752  -33.3057 N   0  0  0  0  0  0  0  0  0  0  0  0
   -9.7779    1.2250  -33.4149 C   0  0  0  0  0  0  0  0  0  0  0  0
  -10.9445    1.8736  -34.1305 C   0  0  0  0  0  0  0  0  0  0  0  0
   -8.4810    1.8033  -33.9094 C   0  0  0  0  0  0  0  0  0  0  0  0
  -14.3717   -0.7307  -33.1091 C   0  0  0  0  0  0  0  0  0  0  0  0
  -14.3968   -0.0774  -31.8845 C   0  0  0  0  0  0  0  0  0  0  0  0
  -15.4971    0.6331  -31.4132 C   0  0  0  0  0  0  0  0  0  0  0  0
  -16.6328    0.7070  -32.1846 C   0  0  0  0  0  0  0  0  0  0  0  0
  -17.6826    1.3967  -31.7223 N   0  0  0  0  0  0  0  0  0  0  0  0
  -18.8121    1.4721  -32.4939 C   0  0  0  0  0  0  0  0  0  0  0  0
  -18.8603    0.8511  -33.7153 C   0  0  0  0  0  0  0  0  0  0  0  0
  -20.0743    0.9520  -34.5236 C   0  0  0  0  0  0  0  0  0  0  0  0
  -21.3815    0.9249  -34.0544 C   0  0  0  0  0  0  0  0  0  0  0  0
  -22.1845    1.0365  -35.1240 N   0  0  0  0  0  0  0  0  0  0  0  0
  -21.4898    1.1327  -36.2391 N   0  0  0  0  0  0  0  0  0  0  0  0
  -22.0291    1.2661  -37.6034 C   0  0  0  0  0  0  0  0  0  0  0  0
  -20.1952    1.0824  -35.8857 C   0  0  0  0  0  0  0  0  0  0  0  0
  -17.7853    0.1699  -34.1402 N   0  0  0  0  0  0  0  0  0  0  0  0
  -16.6543    0.0746  -33.4052 C   0  0  0  0  0  0  0  0  0  0  0  0
  -15.5526   -0.6290  -33.8581 C   0  0  0  0  0  0  0  0  0  0  0  0
  -13.5213   -3.6700  -32.3567 C   0  0  0  0  0  0  0  0  0  0  0  0
  1  2  1  0
  2  3  1  0
  3  4  2  0
  4  5  1  0
  5  6  1  0
  6  7  1  0
  5  8  2  0
  8  9  1  0
  9 10  1  0
 10 11  1  0
 11 12  1  0
 12 13  1  0
 13 14  1  0
 14 15  1  0
 14 16  1  0
 10 17  1  0
 17 18  2  0
 18 19  1  0
 19 20  2  0
 20 21  1  0
 21 22  2  0
 22 23  1  0
 23 24  1  0
 24 25  1  0
 25 26  2  0
 26 27  1  0
 27 28  1  0
 27 29  1  0
 23 30  2  0
 30 31  1  0
 31 32  2  0
  9 33  2  0
 33  3  1  0
 32 17  1  0
 31 20  1  0
 29 24  2  0
M  END
$$$$
