
     RDKit          3D

 20 21  0  0  0  0  0  0  0  0999 V2000
  -17.9884   31.8281  -20.8177 C   0  0  0  0  0  0  0  0  0  0  0  0
  -18.2386   33.3181  -20.8025 C   0  0  1  0  0  0  0  0  0  0  0  0
  -17.2785   34.0686  -21.6861 C   0  0  0  0  0  0  0  0  0  0  0  0
  -16.0663   34.4342  -20.8664 C   0  0  0  0  0  0  0  0  0  0  0  0
  -15.4462   35.7216  -21.2178 C   0  0  0  0  0  0  0  0  0  0  0  0
  -16.2214   36.6487  -22.1312 C   0  0  0  0  0  0  0  0  0  0  0  0
  -17.3417   37.2805  -22.0166 C   0  0  0  0  0  0  0  0  0  0  0  0
  -18.1331   38.1999  -22.8980 C   0  0  2  0  0  0  0  0  0  0  0  0
  -17.5244   39.5230  -23.2374 C   0  0  0  0  0  0  0  0  0  0  0  0
  -18.6633   40.4473  -23.5919 C   0  0  2  0  0  0  0  0  0  0  0  0
  -18.5276   41.6433  -22.9094 O   0  0  0  0  0  0  0  0  0  0  0  0
  -19.9126   39.7373  -23.1126 C   0  0  0  0  0  0  0  0  0  0  0  0
  -19.4024   38.6763  -22.2046 C   0  0  1  0  0  0  0  0  0  0  0  0
  -20.3952   37.5642  -21.9159 C   0  0  2  0  0  0  0  0  0  0  0  0
  -20.3333   37.3450  -20.5805 O   0  0  0  0  0  0  0  0  0  0  0  0
  -20.3448   36.4421  -22.8797 C   0  0  0  0  0  0  0  0  0  0  0  0
  -20.3151   35.1678  -22.9559 C   0  0  0  0  0  0  0  0  0  0  0  0
  -20.3161   33.9989  -22.0678 C   0  0  0  0  0  0  0  0  0  0  0  0
  -21.2286   33.0841  -22.3357 O   0  0  0  0  0  0  0  0  0  0  0  0
  -19.5528   33.6705  -21.0101 O   0  0  0  0  0  0  0  0  0  0  0  0
  2  1  1  6
  2  3  1  0
  3  4  1  0
  4  5  1  0
  5  6  1  0
  6  7  2  0
  7  8  1  0
  8  9  1  1
  9 10  1  0
 10 11  1  1
 10 12  1  0
 13 12  1  6
 13 14  1  0
 14 15  1  1
 14 16  1  0
 16 17  2  0
 17 18  1  0
 18 19  2  0
 18 20  1  0
 20  2  1  0
 13  8  1  0
M  END
$$$$
