
     RDKit          3D

 33 36  0  0  0  0  0  0  0  0999 V2000
  -25.0049   19.5642  -29.9396 O   0  0  0  0  0  0  0  0  0  0  0  0
  -25.5698   19.9026  -28.8799 C   0  0  0  0  0  0  0  0  0  0  0  0
  -24.7919   20.1747  -27.7385 N   0  0  0  0  0  0  0  0  0  0  0  0
  -23.4745   20.7492  -27.8000 C   0  0  0  0  0  0  0  0  0  0  0  0
  -23.0453   21.5626  -28.7997 C   0  0  0  0  0  0  0  0  0  0  0  0
  -21.7494   22.0715  -28.7701 C   0  0  0  0  0  0  0  0  0  0  0  0
  -20.9210   21.7379  -27.7200 C   0  0  0  0  0  0  0  0  0  0  0  0
  -21.3590   20.9296  -26.7341 N   0  0  0  0  0  0  0  0  0  0  0  0
  -22.6121   20.4387  -26.7645 C   0  0  0  0  0  0  0  0  0  0  0  0
  -26.9687   20.0095  -28.8315 N   0  0  0  0  0  0  0  0  0  0  0  0
  -27.7200   19.8527  -30.0611 C   0  0  0  0  0  0  0  0  0  0  0  0
  -29.1702   19.5547  -29.7360 C   0  0  0  0  0  0  0  0  0  0  0  0
  -29.1537   18.6287  -28.5391 C   0  0  0  0  0  0  0  0  0  0  0  0
  -30.4733   17.9030  -28.4460 C   0  0  0  0  0  0  0  0  0  0  0  0
  -30.5909   17.0312  -27.2808 C   0  0  0  0  0  0  0  0  0  0  0  0
  -29.7945   15.9080  -27.1856 C   0  0  0  0  0  0  0  0  0  0  0  0
  -29.8796   15.0565  -26.0983 C   0  0  0  0  0  0  0  0  0  0  0  0
  -30.7928   15.3404  -25.0729 C   0  0  0  0  0  0  0  0  0  0  0  0
  -31.6036   16.4503  -25.1319 C   0  0  0  0  0  0  0  0  0  0  0  0
  -32.5229   16.8287  -24.2043 O   0  0  0  0  0  0  0  0  0  0  0  0
  -33.7116   16.2578  -23.8942 C   0  0  0  0  0  0  0  0  0  0  0  0
  -34.5054   16.8586  -22.8971 C   0  0  0  0  0  0  0  0  0  0  0  0
  -35.7051   16.3157  -22.5572 C   0  0  0  0  0  0  0  0  0  0  0  0
  -36.1814   15.1775  -23.1643 C   0  0  0  0  0  0  0  0  0  0  0  0
  -37.4805   14.6116  -22.7779 C   0  0  0  0  0  0  0  0  0  0  0  0
  -37.3296   13.3194  -22.2679 F   0  0  0  0  0  0  0  0  0  0  0  0
  -38.3525   14.5319  -23.8432 F   0  0  0  0  0  0  0  0  0  0  0  0
  -38.0386   15.3946  -21.7990 F   0  0  0  0  0  0  0  0  0  0  0  0
  -35.3677   14.6187  -24.1403 C   0  0  0  0  0  0  0  0  0  0  0  0
  -34.2124   15.1620  -24.4513 N   0  0  0  0  0  0  0  0  0  0  0  0
  -31.4714   17.2810  -26.2655 C   0  0  0  0  0  0  0  0  0  0  0  0
  -28.8425   19.4364  -27.3251 C   0  0  0  0  0  0  0  0  0  0  0  0
  -27.6344   20.2755  -27.5609 C   0  0  0  0  0  0  0  0  0  0  0  0
  1  2  2  0
  2  3  1  0
  3  4  1  0
  4  5  2  0
  5  6  1  0
  6  7  2  0
  7  8  1  0
  8  9  2  0
  2 10  1  0
 10 11  1  0
 11 12  1  0
 12 13  1  0
 13 14  1  0
 14 15  1  0
 15 16  2  0
 16 17  1  0
 17 18  2  0
 18 19  1  0
 19 20  1  0
 20 21  1  0
 21 22  2  0
 22 23  1  0
 23 24  2  0
 24 25  1  0
 25 26  1  0
 25 27  1  0
 25 28  1  0
 24 29  1  0
 29 30  2  0
 19 31  2  0
 13 32  1  0
 32 33  1  0
  9  4  1  0
 33 10  1  0
 31 15  1  0
 30 21  1  0
M  END
$$$$
