
     RDKit          3D

 18 18  0  0  0  0  0  0  0  0999 V2000
  -19.5151   47.1593  -21.8878 C   0  0  0  0  0  0  0  0  0  0  0  0
  -19.8555   45.7339  -21.5877 C   0  0  0  0  0  0  0  0  0  0  0  0
  -18.6445   44.9752  -21.0371 C   0  0  0  0  0  0  0  0  0  0  0  0
  -18.9961   43.5283  -20.8973 C   0  0  0  0  0  0  0  0  0  0  0  0
  -17.9611   42.6290  -21.5024 C   0  0  0  0  0  0  0  0  0  0  0  0
  -18.4141   41.1844  -21.3801 C   0  0  0  0  0  0  0  0  0  0  0  0
  -17.4187   40.2747  -22.0495 C   0  0  0  0  0  0  0  0  0  0  0  0
  -17.7055   38.8390  -21.8370 C   0  0  0  0  0  0  0  0  0  0  0  0
  -18.5186   38.1607  -22.8806 C   0  0  0  0  0  0  0  0  0  0  0  0
  -18.8419   36.7492  -22.6290 C   0  0  0  0  0  0  0  0  0  0  0  0
  -20.1419   36.3259  -22.7180 C   0  0  0  0  0  0  0  0  0  0  0  0
  -20.4817   34.9909  -22.4921 C   0  0  0  0  0  0  0  0  0  0  0  0
  -19.5259   34.0785  -22.1773 C   0  0  0  0  0  0  0  0  0  0  0  0
  -19.8668   32.5745  -21.9172 B   0  0  0  0  0  0  0  0  0  0  0  0
  -18.7329   31.6563  -21.6761 O   0  0  0  0  0  0  0  0  0  0  0  0
  -21.0998   31.9693  -22.3970 O   0  0  0  0  0  0  0  0  0  0  0  0
  -18.2241   34.5173  -22.0910 C   0  0  0  0  0  0  0  0  0  0  0  0
  -17.8527   35.8183  -22.3059 C   0  0  0  0  0  0  0  0  0  0  0  0
  1  2  1  0
  2  3  1  0
  3  4  1  0
  4  5  1  0
  5  6  1  0
  6  7  1  0
  7  8  1  0
  8  9  1  0
  9 10  1  0
 10 11  2  0
 11 12  1  0
 12 13  2  0
 13 14  1  0
 14 15  1  0
 14 16  1  0
 13 17  1  0
 17 18  2  0
 18 10  1  0
M  END
$$$$
