
     RDKit          3D

 28 31  0  0  0  0  0  0  0  0999 V2000
  -21.3221   37.5194  -28.0525 C   0  0  0  0  0  0  0  0  0  0  0  0
  -21.2670   38.4200  -26.9422 O   0  0  0  0  0  0  0  0  0  0  0  0
  -20.4440   38.1377  -25.8496 C   0  0  0  0  0  0  0  0  0  0  0  0
  -20.1657   36.8692  -25.4390 C   0  0  0  0  0  0  0  0  0  0  0  0
  -19.3430   36.5529  -24.3457 C   0  0  0  0  0  0  0  0  0  0  0  0
  -19.0790   35.1563  -23.9445 C   0  0  0  0  0  0  0  0  0  0  0  0
  -18.8188   37.6529  -23.6950 C   0  0  0  0  0  0  0  0  0  0  0  0
  -19.0804   38.9695  -24.0850 C   0  0  0  0  0  0  0  0  0  0  0  0
  -19.8962   39.1978  -25.1661 C   0  0  0  0  0  0  0  0  0  0  0  0
  -20.1698   40.5879  -25.5748 C   0  0  0  0  0  0  0  0  0  0  0  0
  -21.3353   41.0436  -25.6904 O   0  0  0  0  0  0  0  0  0  0  0  0
  -18.6098   40.1674  -23.5077 O   0  0  0  0  0  0  0  0  0  0  0  0
  -18.1697   40.3193  -22.2126 C   0  0  0  0  0  0  0  0  0  0  0  0
  -17.7543   39.3644  -21.3130 C   0  0  0  0  0  0  0  0  0  0  0  0
  -17.3511   39.7370  -20.0579 C   0  0  0  0  0  0  0  0  0  0  0  0
  -16.8908   38.7441  -19.0419 C   0  0  0  0  0  0  0  0  0  0  0  0
  -17.3490   41.0659  -19.6613 C   0  0  0  0  0  0  0  0  0  0  0  0
  -16.9540   41.4792  -18.4175 O   0  0  0  0  0  0  0  0  0  0  0  0
  -17.7761   42.0217  -20.5938 C   0  0  0  0  0  0  0  0  0  0  0  0
  -18.1853   41.6749  -21.8584 C   0  0  0  0  0  0  0  0  0  0  0  0
  -18.5603   42.9044  -22.5624 C   0  0  0  0  0  0  0  0  0  0  0  0
  -19.8965   42.8538  -22.9920 O   0  0  0  0  0  0  0  0  0  0  0  0
  -18.3455   43.9432  -21.6470 O   0  0  0  0  0  0  0  0  0  0  0  0
  -17.8734   43.4609  -20.4472 C   0  0  0  0  0  0  0  0  0  0  0  0
  -17.5923   44.1643  -19.4419 O   0  0  0  0  0  0  0  0  0  0  0  0
  -17.6583   37.9697  -21.4502 O   0  0  0  0  0  0  0  0  0  0  0  0
  -17.9808   37.2362  -22.5834 C   0  0  0  0  0  0  0  0  0  0  0  0
  -17.5215   36.0821  -22.7057 O   0  0  0  0  0  0  0  0  0  0  0  0
  1  2  1  0
  2  3  1  0
  3  4  2  0
  4  5  1  0
  5  6  1  0
  5  7  2  0
  7  8  1  0
  8  9  2  0
  9 10  1  0
 10 11  2  0
  8 12  1  0
 12 13  1  0
 13 14  2  0
 14 15  1  0
 15 16  1  0
 15 17  2  0
 17 18  1  0
 17 19  1  0
 19 20  2  0
 20 21  1  0
 21 22  1  0
 21 23  1  0
 23 24  1  0
 24 25  2  0
 14 26  1  0
 26 27  1  0
 27 28  2  0
  9  3  1  0
 20 13  1  0
 27  7  1  0
 24 19  1  0
M  END
$$$$
