
     RDKit          3D

 23 25  0  0  0  0  0  0  0  0999 V2000
  -23.2363   16.3795  -32.7603 C   0  0  0  0  0  0  0  0  0  0  0  0
  -22.6364   16.0459  -34.1174 C   0  0  0  0  0  0  0  0  0  0  0  0
  -23.3440   14.8477  -34.6659 C   0  0  0  0  0  0  0  0  0  0  0  0
  -22.8254   17.2655  -34.9953 C   0  0  0  0  0  0  0  0  0  0  0  0
  -21.1970   15.7057  -33.9551 C   0  0  0  0  0  0  0  0  0  0  0  0
  -20.6902   14.6802  -34.5224 O   0  0  0  0  0  0  0  0  0  0  0  0
  -20.3026   16.4806  -33.1740 N   0  0  0  0  0  0  0  0  0  0  0  0
  -19.0272   16.0193  -32.7634 C   0  0  0  0  0  0  0  0  0  0  0  0
  -18.0999   15.7432  -33.7375 C   0  0  0  0  0  0  0  0  0  0  0  0
  -16.8064   15.2806  -33.4327 C   0  0  0  0  0  0  0  0  0  0  0  0
  -16.4501   15.0960  -32.1169 C   0  0  0  0  0  0  0  0  0  0  0  0
  -17.4001   15.3793  -31.1262 C   0  0  0  0  0  0  0  0  0  0  0  0
  -18.6597   15.8312  -31.4545 C   0  0  0  0  0  0  0  0  0  0  0  0
  -17.0261   15.1843  -29.7193 C   0  0  0  0  0  0  0  0  0  0  0  0
  -17.8991   15.4458  -28.8329 O   0  0  0  0  0  0  0  0  0  0  0  0
  -15.6997   14.7078  -29.3591 C   0  0  0  0  0  0  0  0  0  0  0  0
  -15.3719   14.5386  -28.1624 O   0  0  0  0  0  0  0  0  0  0  0  0
  -14.7452   14.4262  -30.4202 C   0  0  0  0  0  0  0  0  0  0  0  0
  -13.4836   13.9744  -30.1079 C   0  0  0  0  0  0  0  0  0  0  0  0
  -12.5589   13.6994  -31.0862 C   0  0  0  0  0  0  0  0  0  0  0  0
  -12.9260   13.8873  -32.3927 C   0  0  0  0  0  0  0  0  0  0  0  0
  -14.2052   14.3460  -32.7226 C   0  0  0  0  0  0  0  0  0  0  0  0
  -15.1180   14.6172  -31.7503 C   0  0  0  0  0  0  0  0  0  0  0  0
  1  2  1  0
  2  3  1  0
  2  4  1  0
  2  5  1  0
  5  6  2  0
  5  7  1  0
  7  8  1  0
  8  9  2  0
  9 10  1  0
 10 11  2  0
 11 12  1  0
 12 13  2  0
 12 14  1  0
 14 15  2  0
 14 16  1  0
 16 17  2  0
 16 18  1  0
 18 19  2  0
 19 20  1  0
 20 21  2  0
 21 22  1  0
 22 23  2  0
 13  8  1  0
 23 18  1  0
 23 11  1  0
M  END
$$$$
