
     RDKit          3D

 19 19  0  0  0  0  0  0  0  0999 V2000
  -18.5522   38.3331  -22.4219 Cl  0  0  0  0  0  0  0  0  0  0  0  0
  -19.9124   34.0838  -21.4213 O   0  0  0  0  0  0  0  0  0  0  0  0
  -18.9172   34.2631  -22.1531 C   0  0  0  0  0  0  0  0  0  0  0  0
  -18.1503   33.1667  -22.4955 O   0  0  0  0  0  0  0  0  0  0  0  0
  -18.6030   35.6012  -22.6139 C   0  0  0  0  0  0  0  0  0  0  0  0
  -17.5917   35.8241  -23.3647 O   0  0  0  0  0  0  0  0  0  0  0  0
  -19.4273   36.6918  -22.2300 N   0  0  0  0  0  0  0  0  0  0  0  0
  -19.1559   38.0270  -22.6602 C   0  0  0  0  0  0  0  0  0  0  0  0
  -19.7796   38.7866  -24.1400 S   0  0  0  0  0  0  0  0  0  0  0  0
  -18.9820   40.3654  -23.8922 C   0  0  0  0  0  0  0  0  0  0  0  0
  -18.3186   40.1934  -22.7284 C   0  0  0  0  0  0  0  0  0  0  0  0
  -18.4057   38.9961  -22.0947 C   0  0  0  0  0  0  0  0  0  0  0  0
  -17.7092   38.6940  -20.7941 C   0  0  0  0  0  0  0  0  0  0  0  0
  -16.5548   38.2167  -20.7713 O   0  0  0  0  0  0  0  0  0  0  0  0
  -18.3549   38.9477  -19.5951 O   0  0  0  0  0  0  0  0  0  0  0  0
  -17.5262   41.4356  -22.2742 C   0  0  0  0  0  0  0  0  0  0  0  0
  -18.3119   42.6119  -22.8108 C   0  0  0  0  0  0  0  0  0  0  0  0
  -18.1297   42.5400  -24.2680 N   0  0  0  0  0  0  0  0  0  0  0  0
  -19.0340   41.5520  -24.7387 C   0  0  0  0  0  0  0  0  0  0  0  0
  2  3  2  0
  3  4  1  0
  3  5  1  0
  5  6  2  0
  5  7  1  0
  7  8  1  0
  8  9  1  0
  9 10  1  0
 10 11  2  0
 11 12  1  0
 12 13  1  0
 13 14  2  0
 13 15  1  0
 11 16  1  0
 16 17  1  0
 17 18  1  0
 18 19  1  0
 12  8  2  0
 19 10  1  0
M  END
$$$$
