
     RDKit          3D

 38 41  0  0  0  0  0  0  0  0999 V2000
  -16.8451   11.3853  -35.5964 C   0  0  0  0  0  0  0  0  0  0  0  0
  -16.4145   12.3267  -36.7078 C   0  0  0  0  0  0  0  0  0  0  0  0
  -17.0297   13.6695  -36.4694 C   0  0  0  0  0  0  0  0  0  0  0  0
  -16.5947   14.6257  -37.5509 C   0  0  0  0  0  0  0  0  0  0  0  0
  -16.6960   16.0477  -37.1596 C   0  0  0  0  0  0  0  0  0  0  0  0
  -17.7427   16.5875  -36.4647 N   0  0  0  0  0  0  0  0  0  0  0  0
  -17.5301   17.8897  -36.2486 C   0  0  0  0  0  0  0  0  0  0  0  0
  -18.4411   18.7933  -35.5336 C   0  0  0  0  0  0  0  0  0  0  0  0
  -18.1006   20.0938  -35.2754 C   0  0  0  0  0  0  0  0  0  0  0  0
  -18.9516   20.9343  -34.6096 C   0  0  0  0  0  0  0  0  0  0  0  0
  -20.2227   20.5243  -34.1492 C   0  0  0  0  0  0  0  0  0  0  0  0
  -20.9790   21.4500  -33.4961 O   0  0  0  0  0  0  0  0  0  0  0  0
  -21.0509   21.7131  -32.1499 C   0  0  0  0  0  0  0  0  0  0  0  0
  -22.4523   21.7290  -31.6543 C   0  0  0  0  0  0  0  0  0  0  0  0
  -23.2293   22.9467  -32.1133 C   0  0  0  0  0  0  0  0  0  0  0  0
  -24.4195   23.1789  -31.3199 N   0  0  0  0  0  0  0  0  0  0  0  0
  -24.8216   24.5728  -31.3440 C   0  0  0  0  0  0  0  0  0  0  0  0
  -23.8733   25.3022  -32.2706 C   0  0  0  0  0  0  0  0  0  0  0  0
  -25.4945   22.4712  -32.0408 C   0  0  0  0  0  0  0  0  0  0  0  0
  -26.3828   23.4242  -32.7982 C   0  0  0  0  0  0  0  0  0  0  0  0
  -20.5431   19.2219  -34.4158 C   0  0  0  0  0  0  0  0  0  0  0  0
  -19.6696   18.3630  -35.0986 C   0  0  0  0  0  0  0  0  0  0  0  0
  -16.3243   18.1867  -36.8165 C   0  0  0  0  0  0  0  0  0  0  0  0
  -15.8187   17.0434  -37.3751 N   0  0  0  0  0  0  0  0  0  0  0  0
  -14.5634   16.9377  -38.0543 C   0  0  0  0  0  0  0  0  0  0  0  0
  -13.3947   17.0979  -37.3432 C   0  0  0  0  0  0  0  0  0  0  0  0
  -12.1474   17.0039  -37.9574 C   0  0  0  0  0  0  0  0  0  0  0  0
  -12.0527   16.7449  -39.3091 C   0  0  0  0  0  0  0  0  0  0  0  0
  -10.7993   16.6475  -39.9409 O   0  0  0  0  0  0  0  0  0  0  0  0
  -10.2484   17.7318  -40.6107 C   0  0  0  0  0  0  0  0  0  0  0  0
   -8.8858   17.7669  -40.7652 C   0  0  0  0  0  0  0  0  0  0  0  0
   -8.2926   18.8090  -41.4155 C   0  0  0  0  0  0  0  0  0  0  0  0
   -9.0474   19.8479  -41.9306 C   0  0  0  0  0  0  0  0  0  0  0  0
   -8.2851   21.1863  -42.7667 Cl  0  0  0  0  0  0  0  0  0  0  0  0
  -10.4174   19.8388  -41.7900 C   0  0  0  0  0  0  0  0  0  0  0  0
  -10.9845   18.7605  -41.1218 C   0  0  0  0  0  0  0  0  0  0  0  0
  -13.2235   16.5858  -40.0131 C   0  0  0  0  0  0  0  0  0  0  0  0
  -14.4558   16.6790  -39.4039 C   0  0  0  0  0  0  0  0  0  0  0  0
  1  2  1  0
  2  3  1  0
  3  4  1  0
  4  5  1  0
  5  6  2  0
  6  7  1  0
  7  8  1  0
  8  9  2  0
  9 10  1  0
 10 11  2  0
 11 12  1  0
 12 13  1  0
 13 14  1  0
 14 15  1  0
 15 16  1  0
 16 17  1  0
 17 18  1  0
 16 19  1  0
 19 20  1  0
 11 21  1  0
 21 22  2  0
  7 23  2  0
 23 24  1  0
 24 25  1  0
 25 26  2  0
 26 27  1  0
 27 28  2  0
 28 29  1  0
 29 30  1  0
 30 31  2  0
 31 32  1  0
 32 33  2  0
 33 34  1  0
 33 35  1  0
 35 36  2  0
 28 37  1  0
 37 38  2  0
 24  5  1  0
 38 25  1  0
 22  8  1  0
 36 30  1  0
M  END
$$$$
