
     RDKit          3D

  8  6  0  0  0  0  0  0  0  0999 V2000
  -17.9566   36.4646  -22.0192 Br  0  0  0  0  0  0  0  0  0  0  0  0
  -17.8788   34.7326  -23.6107 C   0  0  0  0  0  0  0  0  0  0  0  0
  -17.8532   34.6913  -22.1044 C   0  0  0  0  0  0  0  0  0  0  0  0
  -17.0213   33.5376  -21.5884 C   0  0  0  0  0  0  0  0  0  0  0  0
  -17.2663   36.2708  -21.4674 S   0  0  0  0  0  0  0  0  0  0  0  0
  -18.3791   37.6085  -21.7874 C   0  0  0  0  0  0  0  0  0  0  0  0
  -19.4771   37.4050  -22.4132 N   0  0  0  0  0  0  0  0  0  0  0  0
  -18.0580   38.9184  -21.3491 N   0  0  0  0  0  0  0  0  0  0  0  0
  2  3  1  0
  3  4  1  0
  3  5  1  0
  5  6  1  0
  6  7  2  0
  6  8  1  0
M  END
$$$$
