
     RDKit          3D

 20 22  0  0  0  0  0  0  0  0999 V2000
  -20.5442    0.8250  -32.9702 C   0  0  0  0  0  0  0  0  0  0  0  0
  -19.5799    1.4796  -33.8695 N   0  0  0  0  0  0  0  0  0  0  0  0
  -20.2692    2.6491  -34.3696 C   0  0  0  0  0  0  0  0  0  0  0  0
  -18.4719    1.9506  -33.0123 C   0  0  0  0  0  0  0  0  0  0  0  0
  -17.4659    0.7889  -32.9066 C   0  0  0  0  0  0  0  0  0  0  0  0
  -16.1648    1.2345  -32.3696 C   0  0  0  0  0  0  0  0  0  0  0  0
  -15.8721    2.5232  -31.9990 C   0  0  0  0  0  0  0  0  0  0  0  0
  -14.6474    2.4713  -31.4472 N   0  0  0  0  0  0  0  0  0  0  0  0
  -14.1647    1.2019  -31.4618 C   0  0  0  0  0  0  0  0  0  0  0  0
  -12.9688    0.6359  -31.0892 C   0  0  0  0  0  0  0  0  0  0  0  0
  -12.7074   -0.7129  -31.2998 C   0  0  0  0  0  0  0  0  0  0  0  0
  -13.6435   -1.5541  -31.8974 C   0  0  0  0  0  0  0  0  0  0  0  0
  -13.3116   -2.9642  -32.2194 C   0  0  0  0  0  0  0  0  0  0  0  0
  -12.4811   -3.0120  -33.3924 N   0  0  0  0  0  0  0  0  0  0  0  0
  -11.1791   -2.7476  -33.5200 C   0  0  0  0  0  0  0  0  0  0  0  0
  -10.8598   -2.8987  -34.8072 N   0  0  0  0  0  0  0  0  0  0  0  0
  -11.9307   -3.2573  -35.5183 C   0  0  0  0  0  0  0  0  0  0  0  0
  -12.9357   -3.3217  -34.6117 N   0  0  0  0  0  0  0  0  0  0  0  0
  -14.8324   -0.9589  -32.2504 C   0  0  0  0  0  0  0  0  0  0  0  0
  -15.1034    0.4011  -32.0394 C   0  0  0  0  0  0  0  0  0  0  0  0
  1  2  1  0
  2  3  1  0
  2  4  1  0
  4  5  1  0
  5  6  1  0
  6  7  2  0
  7  8  1  0
  8  9  1  0
  9 10  2  0
 10 11  1  0
 11 12  2  0
 12 13  1  0
 13 14  1  0
 14 15  1  0
 15 16  2  0
 16 17  1  0
 17 18  2  0
 12 19  1  0
 19 20  2  0
 20  6  1  0
 20  9  1  0
 18 14  1  0
M  END
$$$$
