
     RDKit          3D

 13 14  0  0  0  0  0  0  0  0999 V2000
  -19.3264   -1.7711  -32.1632 O   0  0  0  0  0  0  0  0  0  0  0  0
  -19.3979   -0.3883  -32.2018 C   0  0  0  0  0  0  0  0  0  0  0  0
  -18.2735    0.3257  -32.5330 C   0  0  0  0  0  0  0  0  0  0  0  0
  -16.4327   -0.6313  -32.9863 I   0  0  0  0  0  0  0  0  0  0  0  0
  -18.3850    1.6957  -32.5603 C   0  0  0  0  0  0  0  0  0  0  0  0
  -19.5707    2.3329  -32.2692 C   0  0  0  0  0  0  0  0  0  0  0  0
  -19.6966    4.0777  -32.3083 Cl  0  0  0  0  0  0  0  0  0  0  0  0
  -20.6955    1.5674  -31.9357 C   0  0  0  0  0  0  0  0  0  0  0  0
  -21.9076    2.1359  -31.6347 C   0  0  0  0  0  0  0  0  0  0  0  0
  -22.9920    1.3400  -31.3108 C   0  0  0  0  0  0  0  0  0  0  0  0
  -22.8944   -0.0346  -31.2796 C   0  0  0  0  0  0  0  0  0  0  0  0
  -21.6993   -0.5669  -31.5776 N   0  0  0  0  0  0  0  0  0  0  0  0
  -20.6167    0.1910  -31.8994 C   0  0  0  0  0  0  0  0  0  0  0  0
  1  2  1  0
  2  3  2  0
  3  4  1  0
  3  5  1  0
  5  6  2  0
  6  7  1  0
  6  8  1  0
  8  9  2  0
  9 10  1  0
 10 11  2  0
 11 12  1  0
 12 13  2  0
 13  2  1  0
 13  8  1  0
M  END
$$$$
