
     RDKit          3D

 29 31  0  0  0  0  0  0  0  0999 V2000
  -24.4316   17.5821  -36.0590 C   0  0  0  0  0  0  0  0  0  0  0  0
  -24.2413   17.4561  -34.6877 O   0  0  0  0  0  0  0  0  0  0  0  0
  -23.3943   18.1893  -33.8907 C   0  0  0  0  0  0  0  0  0  0  0  0
  -23.9360   19.1700  -33.0682 C   0  0  0  0  0  0  0  0  0  0  0  0
  -23.1402   19.9332  -32.2507 C   0  0  0  0  0  0  0  0  0  0  0  0
  -21.7491   19.7261  -32.2384 C   0  0  0  0  0  0  0  0  0  0  0  0
  -20.9940   20.5187  -31.3938 O   0  0  0  0  0  0  0  0  0  0  0  0
  -20.7143   21.8717  -31.5663 C   0  0  0  0  0  0  0  0  0  0  0  0
  -21.1755   18.7762  -33.0294 C   0  0  0  0  0  0  0  0  0  0  0  0
  -19.7368   18.5260  -33.0790 C   0  0  0  0  0  0  0  0  0  0  0  0
  -19.2424   17.7168  -34.1518 N   0  0  0  0  0  0  0  0  0  0  0  0
  -18.6810   18.2127  -35.3308 C   0  0  0  0  0  0  0  0  0  0  0  0
  -17.7913   17.3130  -36.1460 C   0  0  0  0  0  0  0  0  0  0  0  0
  -18.8545   19.3573  -35.7761 O   0  0  0  0  0  0  0  0  0  0  0  0
  -19.3350   16.2916  -34.0158 C   0  0  0  0  0  0  0  0  0  0  0  0
  -20.3504   15.6015  -34.6810 C   0  0  0  0  0  0  0  0  0  0  0  0
  -20.3952   14.2210  -34.5084 C   0  0  0  0  0  0  0  0  0  0  0  0
  -21.3781   13.5175  -35.1454 F   0  0  0  0  0  0  0  0  0  0  0  0
  -19.4935   13.5350  -33.7232 C   0  0  0  0  0  0  0  0  0  0  0  0
  -18.5018   14.2574  -33.0809 C   0  0  0  0  0  0  0  0  0  0  0  0
  -18.4401   15.6393  -33.2411 C   0  0  0  0  0  0  0  0  0  0  0  0
  -17.4387   16.3180  -32.5853 O   0  0  0  0  0  0  0  0  0  0  0  0
  -16.5064   15.6717  -31.8155 C   0  0  0  0  0  0  0  0  0  0  0  0
  -16.8195   15.2121  -30.5747 C   0  0  0  0  0  0  0  0  0  0  0  0
  -15.9137   14.5515  -29.7575 C   0  0  0  0  0  0  0  0  0  0  0  0
  -14.6562   14.3641  -30.2365 C   0  0  0  0  0  0  0  0  0  0  0  0
  -14.2966   14.8134  -31.4861 C   0  0  0  0  0  0  0  0  0  0  0  0
  -15.2353   15.4757  -32.2850 C   0  0  0  0  0  0  0  0  0  0  0  0
  -22.0402   18.0157  -33.8539 C   0  0  0  0  0  0  0  0  0  0  0  0
  1  2  1  0
  2  3  1  0
  3  4  2  0
  4  5  1  0
  5  6  2  0
  6  7  1  0
  7  8  1  0
  6  9  1  0
  9 10  1  0
 10 11  1  0
 11 12  1  0
 12 13  1  0
 12 14  2  0
 11 15  1  0
 15 16  2  0
 16 17  1  0
 17 18  1  0
 17 19  2  0
 19 20  1  0
 20 21  2  0
 21 22  1  0
 22 23  1  0
 23 24  2  0
 24 25  1  0
 25 26  2  0
 26 27  1  0
 27 28  2  0
  9 29  2  0
 29  3  1  0
 21 15  1  0
 28 23  1  0
M  END
$$$$
