
     RDKit          3D

 21 22  0  0  0  0  0  0  0  0999 V2000
  -19.7856   -2.1296  -31.8307 C   0  0  0  0  0  0  0  0  0  0  0  0
  -19.1799   -0.9317  -31.3944 O   0  0  0  0  0  0  0  0  0  0  0  0
  -17.8794   -0.6323  -31.7588 C   0  0  0  0  0  0  0  0  0  0  0  0
  -16.8324   -1.3715  -31.2349 C   0  0  0  0  0  0  0  0  0  0  0  0
  -15.5445   -1.0570  -31.6107 C   0  0  0  0  0  0  0  0  0  0  0  0
  -15.3165   -0.0244  -32.4917 C   0  0  0  0  0  0  0  0  0  0  0  0
  -13.9098    0.2683  -32.8599 C   0  0  0  0  0  0  0  0  0  0  0  0
  -12.9241   -0.2423  -31.8702 C   0  0  0  0  0  0  0  0  0  0  0  0
  -11.7131    0.5453  -31.9222 N   0  0  0  0  0  0  0  0  0  0  0  0
  -10.5669    0.1850  -32.6634 C   0  0  0  0  0  0  0  0  0  0  0  0
  -10.5723   -0.8273  -33.4019 O   0  0  0  0  0  0  0  0  0  0  0  0
   -9.3291    0.9590  -32.6129 C   0  0  0  0  0  0  0  0  0  0  0  0
   -9.1578    2.2975  -32.2250 C   0  0  0  0  0  0  0  0  0  0  0  0
   -7.9232    2.7849  -32.2626 C   0  0  0  0  0  0  0  0  0  0  0  0
   -6.8950    1.9611  -32.6744 C   0  0  0  0  0  0  0  0  0  0  0  0
   -5.4272    2.2948  -32.7961 C   0  0  0  0  0  0  0  0  0  0  0  0
   -7.7148    0.4647  -33.0121 S   0  0  0  0  0  0  0  0  0  0  0  0
  -16.3516    0.7126  -33.0147 C   0  0  0  0  0  0  0  0  0  0  0  0
  -17.6406    0.4090  -32.6478 C   0  0  0  0  0  0  0  0  0  0  0  0
  -18.7069    1.1263  -33.1517 O   0  0  0  0  0  0  0  0  0  0  0  0
  -18.9474    1.1059  -34.5428 C   0  0  0  0  0  0  0  0  0  0  0  0
  1  2  1  0
  2  3  1  0
  3  4  2  0
  4  5  1  0
  5  6  2  0
  6  7  1  0
  7  8  1  0
  8  9  1  0
  9 10  1  0
 10 11  2  0
 10 12  1  0
 12 13  2  0
 13 14  1  0
 14 15  2  0
 15 16  1  0
 15 17  1  0
  6 18  1  0
 18 19  2  0
 19 20  1  0
 20 21  1  0
 19  3  1  0
 17 12  1  0
M  END
$$$$
