
     RDKit          3D

 27 29  0  0  0  0  0  0  0  0999 V2000
  -19.8497   21.5726  -35.3081 C   0  0  0  0  0  0  0  0  0  0  0  0
  -20.9382   20.8523  -35.6654 C   0  0  0  0  0  0  0  0  0  0  0  0
  -21.8016   21.5127  -36.6208 C   0  0  0  0  0  0  0  0  0  0  0  0
  -23.0742   21.0423  -36.8548 C   0  0  0  0  0  0  0  0  0  0  0  0
  -23.8789   21.6306  -37.8048 C   0  0  0  0  0  0  0  0  0  0  0  0
  -23.4758   22.7039  -38.5655 C   0  0  0  0  0  0  0  0  0  0  0  0
  -24.3106   23.3419  -39.5753 C   0  0  0  0  0  0  0  0  0  0  0  0
  -23.8901   24.2967  -40.2467 O   0  0  0  0  0  0  0  0  0  0  0  0
  -25.5875   22.8499  -39.7627 O   0  0  0  0  0  0  0  0  0  0  0  0
  -22.2000   23.1600  -38.3151 C   0  0  0  0  0  0  0  0  0  0  0  0
  -21.7726   24.2245  -39.0553 F   0  0  0  0  0  0  0  0  0  0  0  0
  -21.3754   22.5874  -37.3704 C   0  0  0  0  0  0  0  0  0  0  0  0
  -21.1933   19.5719  -35.0502 C   0  0  0  0  0  0  0  0  0  0  0  0
  -20.7047   18.4504  -35.7444 C   0  0  0  0  0  0  0  0  0  0  0  0
  -20.9370   17.1534  -35.3592 C   0  0  0  0  0  0  0  0  0  0  0  0
  -21.6944   16.9731  -34.2247 C   0  0  0  0  0  0  0  0  0  0  0  0
  -22.1832   18.0575  -33.5319 C   0  0  0  0  0  0  0  0  0  0  0  0
  -21.9444   19.3843  -33.9316 C   0  0  0  0  0  0  0  0  0  0  0  0
  -22.6391   20.4526  -33.1486 C   0  0  0  0  0  0  0  0  0  0  0  0
  -21.9570   15.5781  -33.7911 C   0  0  0  0  0  0  0  0  0  0  0  0
  -23.1852   15.5965  -32.8687 C   0  0  0  0  0  0  0  0  0  0  0  0
  -20.8396   14.9531  -33.0222 C   0  0  0  0  0  0  0  0  0  0  0  0
  -22.3006   14.7365  -34.9827 C   0  0  0  0  0  0  0  0  0  0  0  0
  -21.3020   14.7954  -36.0888 C   0  0  0  0  0  0  0  0  0  0  0  0
  -20.4127   15.9808  -36.0988 C   0  0  0  0  0  0  0  0  0  0  0  0
  -20.2675   16.4345  -37.5603 C   0  0  0  0  0  0  0  0  0  0  0  0
  -19.0091   15.6186  -35.6482 C   0  0  0  0  0  0  0  0  0  0  0  0
  1  2  2  0
  2  3  1  0
  3  4  2  0
  4  5  1  0
  5  6  2  0
  6  7  1  0
  7  8  2  0
  7  9  1  0
  6 10  1  0
 10 11  1  0
 10 12  2  0
  2 13  1  0
 13 14  2  0
 14 15  1  0
 15 16  2  0
 16 17  1  0
 17 18  2  0
 18 19  1  0
 16 20  1  0
 20 21  1  0
 20 22  1  0
 20 23  1  0
 23 24  1  0
 24 25  1  0
 25 26  1  0
 25 27  1  0
 12  3  1  0
 18 13  1  0
 25 15  1  0
M  END
$$$$
