
     RDKit          3D

 32 36  0  0  0  0  0  0  0  0999 V2000
  -15.9975   36.2881  -20.2051 N   0  0  0  0  0  0  0  0  0  0  0  0
  -16.6828   37.0339  -20.7634 C   0  0  0  0  0  0  0  0  0  0  0  0
  -17.5408   37.9529  -21.4829 C   0  0  0  0  0  0  0  0  0  0  0  0
  -18.2593   37.7303  -22.6275 C   0  0  0  0  0  0  0  0  0  0  0  0
  -18.2711   36.5212  -23.3619 N   0  0  0  0  0  0  0  0  0  0  0  0
  -18.0274   34.9640  -22.6680 S   0  0  0  0  0  6  0  0  0  0  0  0
  -16.7926   34.9918  -21.8216 O   0  0  0  0  0  0  0  0  0  0  0  0
  -17.8494   33.9635  -23.8066 O   0  0  0  0  0  0  0  0  0  0  0  0
  -19.4347   34.4457  -21.7683 C   0  0  0  0  0  0  0  0  0  0  0  0
  -19.3294   33.4447  -20.8292 C   0  0  0  0  0  0  0  0  0  0  0  0
  -20.4396   33.0170  -20.1021 C   0  0  0  0  0  0  0  0  0  0  0  0
  -21.6614   33.5797  -20.3025 C   0  0  0  0  0  0  0  0  0  0  0  0
  -21.7885   34.5922  -21.2464 C   0  0  0  0  0  0  0  0  0  0  0  0
  -20.6714   35.0117  -21.9674 C   0  0  0  0  0  0  0  0  0  0  0  0
  -18.9382   38.8431  -22.9554 N   0  0  0  0  0  0  0  0  0  0  0  0
  -19.8173   39.1172  -24.0741 C   0  0  0  0  0  0  0  0  0  0  0  0
  -19.0933   39.5272  -25.2783 C   0  0  0  0  0  0  0  0  0  0  0  0
  -18.7819   38.5944  -26.2378 C   0  0  0  0  0  0  0  0  0  0  0  0
  -18.0896   38.9846  -27.3926 C   0  0  0  0  0  0  0  0  0  0  0  0
  -17.7171   40.2944  -27.5765 C   0  0  0  0  0  0  0  0  0  0  0  0
  -18.0256   41.2347  -26.6197 C   0  0  0  0  0  0  0  0  0  0  0  0
  -18.7141   40.8345  -25.4767 C   0  0  0  0  0  0  0  0  0  0  0  0
  -18.6588   39.7837  -22.0246 C   0  0  0  0  0  0  0  0  0  0  0  0
  -19.0645   41.0767  -21.8668 N   0  0  0  0  0  0  0  0  0  0  0  0
  -18.6373   41.8382  -20.8331 C   0  0  0  0  0  0  0  0  0  0  0  0
  -19.0474   43.1365  -20.6804 C   0  0  0  0  0  0  0  0  0  0  0  0
  -18.6048   43.9006  -19.6246 C   0  0  0  0  0  0  0  0  0  0  0  0
  -17.7256   43.3430  -18.6973 C   0  0  0  0  0  0  0  0  0  0  0  0
  -17.3002   42.0385  -18.8318 C   0  0  0  0  0  0  0  0  0  0  0  0
  -17.7687   41.2948  -19.9126 C   0  0  0  0  0  0  0  0  0  0  0  0
  -17.3594   40.0224  -20.0534 N   0  0  0  0  0  0  0  0  0  0  0  0
  -17.7917   39.2732  -21.0877 C   0  0  0  0  0  0  0  0  0  0  0  0
  1  2  3  0
  2  3  1  0
  3  4  2  0
  4  5  1  0
  5  6  1  0
  6  7  2  0
  6  8  2  0
  6  9  1  0
  9 10  2  0
 10 11  1  0
 11 12  2  0
 12 13  1  0
 13 14  2  0
  4 15  1  0
 15 16  1  0
 16 17  1  0
 17 18  2  0
 18 19  1  0
 19 20  2  0
 20 21  1  0
 21 22  2  0
 15 23  1  0
 23 24  2  0
 24 25  1  0
 25 26  2  0
 26 27  1  0
 27 28  2  0
 28 29  1  0
 29 30  2  0
 30 31  1  0
 31 32  2  0
 32  3  1  0
 14  9  1  0
 22 17  1  0
 32 23  1  0
 30 25  1  0
M  END
$$$$
