
     RDKit          3D

 21 22  0  0  0  0  0  0  0  0999 V2000
  -31.8937   20.1183  -29.1305 C   0  0  0  0  0  0  0  0  0  0  0  0
  -30.9280   20.6864  -29.9912 O   0  0  0  0  0  0  0  0  0  0  0  0
  -29.5623   20.5627  -29.7827 C   0  0  0  0  0  0  0  0  0  0  0  0
  -28.7355   21.0871  -30.7610 C   0  0  0  0  0  0  0  0  0  0  0  0
  -27.3908   21.0089  -30.6361 C   0  0  0  0  0  0  0  0  0  0  0  0
  -26.8573   20.3841  -29.4917 C   0  0  0  0  0  0  0  0  0  0  0  0
  -25.4580   20.3205  -29.4481 N   0  0  0  0  0  4  0  0  0  0  0  0
  -24.7056   19.5594  -30.0736 O   0  0  0  0  0  0  0  0  0  0  0  0
  -24.7984   21.2042  -28.5761 O   0  0  0  0  0  1  0  0  0  0  0  0
  -27.6601   19.8683  -28.5292 C   0  0  0  0  0  0  0  0  0  0  0  0
  -27.0693   19.0971  -27.0996 S   0  0  0  0  0  6  0  0  0  0  0  0
  -27.7217   19.7618  -25.8589 O   0  0  0  0  0  0  0  0  0  0  0  0
  -25.6180   19.2096  -26.8527 O   0  0  0  0  0  0  0  0  0  0  0  0
  -27.5756   17.4105  -27.0029 C   0  0  0  0  0  0  0  0  0  0  0  0
  -26.8497   16.3988  -27.5968 C   0  0  0  0  0  0  0  0  0  0  0  0
  -27.2819   15.0785  -27.5003 C   0  0  0  0  0  0  0  0  0  0  0  0
  -28.4295   14.7296  -26.8220 C   0  0  0  0  0  0  0  0  0  0  0  0
  -28.9588   13.0557  -26.7121 Cl  0  0  0  0  0  0  0  0  0  0  0  0
  -29.1513   15.7416  -26.2308 C   0  0  0  0  0  0  0  0  0  0  0  0
  -28.7214   17.0631  -26.3256 C   0  0  0  0  0  0  0  0  0  0  0  0
  -29.0158   19.9852  -28.7258 N   0  0  0  0  0  0  0  0  0  0  0  0
  1  2  1  0
  2  3  1  0
  3  4  2  0
  4  5  1  0
  5  6  2  0
  6  7  1  0
  7  8  2  0
  7  9  1  0
  6 10  1  0
 10 11  1  0
 11 12  2  0
 11 13  2  0
 11 14  1  0
 14 15  2  0
 15 16  1  0
 16 17  2  0
 17 18  1  0
 17 19  1  0
 19 20  2  0
 10 21  2  0
 21  3  1  0
 20 14  1  0
M  CHG  2   7   1   9  -1
M  END
$$$$
