
     RDKit          3D

 14 15  0  0  0  0  0  0  0  0999 V2000
  -14.3617   13.5969  -30.4111 C   0  0  0  0  0  0  0  0  0  0  0  0
  -15.5873   14.4549  -30.2079 C   0  0  0  0  0  0  0  0  0  0  0  0
  -16.7123   13.6686  -29.7480 N   0  0  0  0  0  0  0  0  0  0  0  0
  -15.9140   15.2811  -31.4253 C   0  0  0  0  0  0  0  0  0  0  0  0
  -14.7181   16.1730  -31.6960 C   0  0  0  0  0  0  0  0  0  0  0  0
  -15.0078   17.1290  -32.8525 C   0  0  0  0  0  0  0  0  0  0  0  0
  -16.2037   17.9472  -32.4467 C   0  0  0  0  0  0  0  0  0  0  0  0
  -17.4089   17.0608  -32.3062 C   0  0  0  0  0  0  0  0  0  0  0  0
  -17.6212   16.2383  -33.5603 C   0  0  0  0  0  0  0  0  0  0  0  0
  -16.4123   15.3715  -33.8142 C   0  0  0  0  0  0  0  0  0  0  0  0
  -15.2430   16.2975  -34.0738 C   0  0  0  0  0  0  0  0  0  0  0  0
  -16.1264   14.4372  -32.6562 C   0  0  0  0  0  0  0  0  0  0  0  0
  -17.1655   16.0626  -31.1735 C   0  0  0  0  0  0  0  0  0  0  0  0
  -15.8862   15.1604  -31.4797 Cl  0  0  0  0  0  0  0  0  0  0  0  0
  1  2  1  0
  2  3  1  0
  2  4  1  0
  4  5  1  0
  5  6  1  0
  6  7  1  0
  7  8  1  0
  8  9  1  0
  9 10  1  0
 10 11  1  0
 10 12  1  0
  8 13  1  0
 12  4  1  0
 13  4  1  0
 11  6  1  0
M  END
$$$$
