
     RDKit          3D

 35 39  0  0  0  0  0  0  0  0999 V2000
  -28.5252   23.4575  -26.9515 C   0  0  0  0  0  0  0  0  0  0  0  0
  -29.1992   22.5509  -26.0601 N   0  0  0  0  0  0  0  0  0  0  0  0
  -29.0997   21.1392  -26.2290 C   0  0  0  0  0  0  0  0  0  0  0  0
  -29.6908   20.2779  -25.3731 N   0  0  0  0  0  0  0  0  0  0  0  0
  -29.6024   18.9354  -25.5247 C   0  0  0  0  0  0  0  0  0  0  0  0
  -28.8878   18.4175  -26.5844 C   0  0  0  0  0  0  0  0  0  0  0  0
  -28.7381   17.0714  -26.8263 C   0  0  0  0  0  0  0  0  0  0  0  0
  -28.0058   16.6321  -27.9107 C   0  0  0  0  0  0  0  0  0  0  0  0
  -27.8249   15.2006  -28.2001 C   0  0  0  0  0  0  0  0  0  0  0  0
  -27.0129   14.4649  -27.3654 C   0  0  0  0  0  0  0  0  0  0  0  0
  -26.7783   13.1041  -27.5549 C   0  0  0  0  0  0  0  0  0  0  0  0
  -27.3894   12.4893  -28.6213 C   0  0  0  0  0  0  0  0  0  0  0  0
  -27.1969   11.0684  -28.8909 C   0  0  0  0  0  0  0  0  0  0  0  0
  -27.4443   10.5030  -30.1033 C   0  0  0  0  0  0  0  0  0  0  0  0
  -27.2482    9.1360  -30.3255 C   0  0  0  0  0  0  0  0  0  0  0  0
  -26.7982    8.3882  -29.2781 C   0  0  0  0  0  0  0  0  0  0  0  0
  -26.5444    8.9489  -28.0471 C   0  0  0  0  0  0  0  0  0  0  0  0
  -26.0561    8.0844  -26.9454 C   0  0  0  0  0  0  0  0  0  0  0  0
  -26.7541   10.2623  -27.9062 N   0  0  0  0  0  0  0  0  0  0  0  0
  -28.2123   13.2466  -29.4628 C   0  0  0  0  0  0  0  0  0  0  0  0
  -28.4256   14.5855  -29.2524 C   0  0  0  0  0  0  0  0  0  0  0  0
  -29.4554   15.4664  -30.3306 Cl  0  0  0  0  0  0  0  0  0  0  0  0
  -27.4370   17.5990  -28.7321 C   0  0  0  0  0  0  0  0  0  0  0  0
  -26.7740   17.1601  -29.7145 O   0  0  0  0  0  0  0  0  0  0  0  0
  -27.5682   18.9230  -28.5177 N   0  0  0  0  0  0  0  0  0  0  0  0
  -26.9516   19.8840  -29.4095 C   0  0  0  0  0  0  0  0  0  0  0  0
  -25.5972   20.3369  -28.9141 C   0  0  1  0  0  0  0  0  0  0  0  0
  -24.6496   19.3461  -28.9753 O   0  0  0  0  0  0  0  0  0  0  0  0
  -24.3666   18.9170  -30.2609 C   0  0  0  0  0  0  0  0  0  0  0  0
  -24.1706   20.0942  -31.1577 C   0  0  2  0  0  0  0  0  0  0  0  0
  -22.9160   19.9946  -31.9119 N   0  0  0  0  0  0  0  0  0  0  0  0
  -24.0365   21.3230  -30.2891 C   0  0  0  0  0  0  0  0  0  0  0  0
  -25.2170   21.5249  -29.5354 O   0  0  0  0  0  0  0  0  0  0  0  0
  -28.2910   19.3044  -27.4482 C   0  0  0  0  0  0  0  0  0  0  0  0
  -28.4109   20.6438  -27.2502 N   0  0  0  0  0  0  0  0  0  0  0  0
  1  2  1  0
  2  3  1  0
  3  4  2  0
  4  5  1  0
  5  6  2  0
  6  7  1  0
  7  8  2  0
  8  9  1  0
  9 10  2  0
 10 11  1  0
 11 12  2  0
 12 13  1  0
 13 14  2  0
 14 15  1  0
 15 16  2  0
 16 17  1  0
 17 18  1  0
 17 19  2  0
 12 20  1  0
 20 21  2  0
 21 22  1  0
  8 23  1  0
 23 24  2  0
 23 25  1  0
 25 26  1  0
 27 26  1  6
 27 28  1  0
 28 29  1  0
 29 30  1  0
 30 31  1  1
 30 32  1  0
 32 33  1  0
 25 34  1  0
 34 35  2  0
 35  3  1  0
 34  6  1  0
 21  9  1  0
 33 27  1  0
 19 13  1  0
M  END
$$$$
