
     RDKit          3D

 39 43  0  0  0  0  0  0  0  0999 V2000
  -18.1808   40.5207  -19.4114 N   0  0  0  0  0  0  0  0  0  0  0  0
  -18.5785   40.3960  -20.4702 C   0  0  0  0  0  0  0  0  0  0  0  0
  -19.0826   40.2610  -21.8142 C   0  0  0  0  0  0  0  0  0  0  0  0
  -19.5780   39.0701  -22.3233 C   0  0  0  0  0  0  0  0  0  0  0  0
  -19.5785   37.9651  -21.5051 O   0  0  0  0  0  0  0  0  0  0  0  0
  -18.5877   37.0027  -21.6987 C   0  0  0  0  0  0  0  0  0  0  0  0
  -17.2686   37.3761  -21.8171 C   0  0  0  0  0  0  0  0  0  0  0  0
  -16.3104   36.3904  -22.0088 C   0  0  0  0  0  0  0  0  0  0  0  0
  -16.7017   35.0866  -22.0745 C   0  0  0  0  0  0  0  0  0  0  0  0
  -15.7626   34.1324  -22.2635 F   0  0  0  0  0  0  0  0  0  0  0  0
  -18.0240   34.6504  -21.9603 C   0  0  0  0  0  0  0  0  0  0  0  0
  -18.3291   33.2752  -22.0490 N   0  0  0  0  0  0  0  0  0  0  0  0
  -17.9131   32.2538  -21.1782 C   0  0  0  0  0  0  0  0  0  0  0  0
  -17.1650   32.5006  -20.2190 O   0  0  0  0  0  0  0  0  0  0  0  0
  -18.3631   30.8287  -21.3844 C   0  0  0  0  0  0  0  0  0  0  0  0
  -19.4183   30.4831  -20.3936 C   0  0  0  0  0  0  0  0  0  0  0  0
  -20.7166   30.9384  -20.4873 C   0  0  0  0  0  0  0  0  0  0  0  0
  -21.6924   30.6033  -19.5543 C   0  0  0  0  0  0  0  0  0  0  0  0
  -21.3575   29.7888  -18.4968 C   0  0  0  0  0  0  0  0  0  0  0  0
  -20.0692   29.3149  -18.3708 C   0  0  0  0  0  0  0  0  0  0  0  0
  -19.7690   28.4403  -17.2106 C   0  0  0  0  0  0  0  0  0  0  0  0
  -20.4720   28.8059  -16.0791 F   0  0  0  0  0  0  0  0  0  0  0  0
  -20.0575   27.1165  -17.4999 F   0  0  0  0  0  0  0  0  0  0  0  0
  -18.3874   28.4861  -16.9914 F   0  0  0  0  0  0  0  0  0  0  0  0
  -19.1151   29.6672  -19.3197 C   0  0  0  0  0  0  0  0  0  0  0  0
  -18.9488   35.6376  -21.7723 C   0  0  0  0  0  0  0  0  0  0  0  0
  -20.0326   39.1094  -23.6229 C   0  0  0  0  0  0  0  0  0  0  0  0
  -20.0196   40.2214  -24.4051 C   0  0  0  0  0  0  0  0  0  0  0  0
  -19.5141   41.4431  -23.8913 C   0  0  0  0  0  0  0  0  0  0  0  0
  -19.4548   42.5607  -24.5350 N   0  0  0  0  0  0  0  0  0  0  0  0
  -18.9644   43.6667  -23.9575 C   0  0  0  0  0  0  0  0  0  0  0  0
  -18.7973   44.9904  -24.4447 N   0  0  0  0  0  0  0  0  0  0  0  0
  -18.2615   45.9685  -23.6017 C   0  0  0  0  0  0  0  0  0  0  0  0
  -17.8754   45.6345  -22.4461 O   0  0  0  0  0  0  0  0  0  0  0  0
  -18.1272   47.4111  -24.0198 C   0  0  0  0  0  0  0  0  0  0  0  0
  -16.9956   48.2058  -23.5131 C   0  0  0  0  0  0  0  0  0  0  0  0
  -18.3373   48.4180  -22.8951 C   0  0  0  0  0  0  0  0  0  0  0  0
  -18.5485   43.0424  -22.3392 S   0  0  0  0  0  0  0  0  0  0  0  0
  -19.0693   41.3858  -22.6037 C   0  0  0  0  0  0  0  0  0  0  0  0
  1  2  3  0
  2  3  1  0
  3  4  2  0
  4  5  1  0
  5  6  1  0
  6  7  2  0
  7  8  1  0
  8  9  2  0
  9 10  1  0
  9 11  1  0
 11 12  1  0
 12 13  1  0
 13 14  2  0
 13 15  1  0
 15 16  1  0
 16 17  2  0
 17 18  1  0
 18 19  2  0
 19 20  1  0
 20 21  1  0
 21 22  1  0
 21 23  1  0
 21 24  1  0
 20 25  2  0
 11 26  2  0
  4 27  1  0
 27 28  2  0
 28 29  1  0
 29 30  1  0
 30 31  2  0
 31 32  1  0
 32 33  1  0
 33 34  2  0
 33 35  1  0
 35 36  1  0
 36 37  1  0
 31 38  1  0
 38 39  1  0
 39  3  1  0
 26  6  1  0
 39 29  2  0
 25 16  1  0
 37 35  1  0
M  END
$$$$
