
     RDKit          3D

 28 31  0  0  0  0  0  0  0  0999 V2000
  -11.2140   21.7050  -43.4885 C   0  0  0  0  0  0  0  0  0  0  0  0
  -10.9135   20.2807  -43.8442 C   0  0  0  0  0  0  0  0  0  0  0  0
   -9.9349   20.0909  -44.5910 O   0  0  0  0  0  0  0  0  0  0  0  0
  -11.6303   19.2241  -43.4076 O   0  0  0  0  0  0  0  0  0  0  0  0
  -11.2140   17.8759  -43.2568 C   0  0  2  0  0  0  0  0  0  0  0  0
  -10.1286   17.5367  -44.1913 C   0  0  0  0  0  0  0  0  0  0  0  0
  -10.2731   16.8289  -45.4710 C   0  0  0  0  0  0  0  0  0  0  0  0
   -8.9930   17.8634  -43.9059 O   0  0  0  0  0  0  0  0  0  0  0  0
  -12.4321   17.0861  -43.8239 C   0  0  0  0  0  0  0  0  0  0  0  0
  -12.8099   16.1314  -42.7051 C   0  0  0  0  0  0  0  0  0  0  0  0
  -12.5303   17.0116  -41.5287 C   0  0  1  0  0  0  0  0  0  0  0  0
  -12.5434   16.3349  -40.2141 C   0  0  2  0  0  0  0  0  0  0  0  0
  -13.8536   15.6449  -39.9025 C   0  0  0  0  0  0  0  0  0  0  0  0
  -13.6388   14.8915  -38.6145 C   0  0  2  0  0  0  0  0  0  0  0  0
  -14.7636   13.9460  -38.2936 C   0  0  0  0  0  0  0  0  0  0  0  0
  -13.3837   15.8639  -37.5344 C   0  0  0  0  0  0  0  0  0  0  0  0
  -13.9555   15.6946  -36.3512 C   0  0  0  0  0  0  0  0  0  0  0  0
  -13.7434   16.6064  -35.2658 C   0  0  0  0  0  0  0  0  0  0  0  0
  -14.2472   16.4160  -34.1439 O   0  0  0  0  0  0  0  0  0  0  0  0
  -12.8964   17.8132  -35.4911 C   0  0  0  0  0  0  0  0  0  0  0  0
  -13.0074   18.1963  -36.9511 C   0  0  0  0  0  0  0  0  0  0  0  0
  -12.4939   17.0081  -37.7781 C   0  0  1  0  0  0  0  0  0  0  0  0
  -11.1229   16.6793  -37.1863 C   0  0  0  0  0  0  0  0  0  0  0  0
  -12.3923   17.4629  -39.1905 C   0  0  1  0  0  0  0  0  0  0  0  0
  -11.1676   18.2515  -39.4313 C   0  0  0  0  0  0  0  0  0  0  0  0
  -10.8587   18.5946  -40.8560 C   0  0  0  0  0  0  0  0  0  0  0  0
  -11.0927   17.4710  -41.8440 C   0  0  2  0  0  0  0  0  0  0  0  0
  -10.1109   16.3949  -41.5127 C   0  0  0  0  0  0  0  0  0  0  0  0
  1  2  1  0
  2  3  2  0
  2  4  1  0
  5  4  1  1
  5  6  1  0
  6  7  1  0
  6  8  2  0
  5  9  1  0
  9 10  1  0
 11 10  1  6
 11 12  1  0
 12 13  1  1
 13 14  1  0
 14 15  1  1
 14 16  1  0
 16 17  2  0
 17 18  1  0
 18 19  2  0
 18 20  1  0
 20 21  1  0
 21 22  1  0
 22 23  1  1
 22 24  1  0
 24 25  1  1
 25 26  1  0
 26 27  1  0
 27 28  1  6
 27  5  1  0
 27 11  1  0
 24 12  1  0
 22 16  1  0
M  END
$$$$
