
     RDKit          3D

 39 44  0  0  0  0  0  0  0  0999 V2000
  -27.3930   12.7753  -26.0356 C   0  0  0  0  0  0  0  0  0  0  0  0
  -27.2212   13.7197  -25.0034 O   0  0  0  0  0  0  0  0  0  0  0  0
  -26.1312   14.5676  -25.0221 C   0  0  0  0  0  0  0  0  0  0  0  0
  -24.8579   14.0507  -24.7325 C   0  0  0  0  0  0  0  0  0  0  0  0
  -23.7327   14.8427  -24.7343 C   0  0  0  0  0  0  0  0  0  0  0  0
  -22.4600   14.2916  -24.4315 N   0  0  0  0  0  0  0  0  0  0  0  0
  -21.5814   15.1271  -23.6422 C   0  0  0  0  0  0  0  0  0  0  0  0
  -20.2645   14.5435  -23.3038 C   0  0  0  0  0  0  0  0  0  0  0  0
  -19.9983   13.2627  -23.8518 N   0  0  0  0  0  0  0  0  0  0  0  0
  -19.1374   13.2668  -24.9913 C   0  0  0  0  0  0  0  0  0  0  0  0
  -21.1124   12.3813  -23.9215 C   0  0  0  0  0  0  0  0  0  0  0  0
  -22.1224   12.9877  -24.9072 C   0  0  0  0  0  0  0  0  0  0  0  0
  -23.9016   16.1796  -25.0346 C   0  0  0  0  0  0  0  0  0  0  0  0
  -25.1469   16.6903  -25.3193 C   0  0  0  0  0  0  0  0  0  0  0  0
  -26.2714   15.8984  -25.3173 C   0  0  0  0  0  0  0  0  0  0  0  0
  -27.5204   16.4463  -25.5937 N   0  0  0  0  0  0  0  0  0  0  0  0
  -27.7352   17.4809  -26.5717 C   0  0  0  0  0  0  0  0  0  0  0  0
  -28.8861   17.5537  -27.2632 N   0  0  0  0  0  0  0  0  0  0  0  0
  -29.0967   18.5048  -28.1879 C   0  0  0  0  0  0  0  0  0  0  0  0
  -28.1353   19.4599  -28.4768 C   0  0  0  0  0  0  0  0  0  0  0  0
  -26.9583   19.3845  -27.7715 C   0  0  0  0  0  0  0  0  0  0  0  0
  -26.7952   18.3990  -26.8411 N   0  0  0  0  0  0  0  0  0  0  0  0
  -25.9126   20.3183  -28.0422 N   0  0  0  0  0  0  0  0  0  0  0  0
  -24.6997   20.2171  -27.2924 C   0  0  0  0  0  0  0  0  0  0  0  0
  -23.6032   19.5932  -28.1252 C   0  0  0  0  0  0  0  0  0  0  0  0
  -22.6410   20.6064  -27.5467 C   0  0  0  0  0  0  0  0  0  0  0  0
  -23.8409   21.4448  -27.1603 C   0  0  0  0  0  0  0  0  0  0  0  0
  -26.1106   21.3085  -29.0418 C   0  0  0  0  0  0  0  0  0  0  0  0
  -25.2192   22.1496  -29.3121 O   0  0  0  0  0  0  0  0  0  0  0  0
  -27.3483   21.3539  -29.7581 N   0  0  0  0  0  0  0  0  0  0  0  0
  -27.4898   22.3160  -30.7964 C   0  0  0  0  0  0  0  0  0  0  0  0
  -28.1522   23.5160  -30.6415 C   0  0  0  0  0  0  0  0  0  0  0  0
  -28.7552   23.8338  -29.3206 C   0  0  0  0  0  0  0  0  0  0  0  0
  -28.2478   24.3983  -31.7002 C   0  0  0  0  0  0  0  0  0  0  0  0
  -27.6964   24.1293  -32.9376 C   0  0  0  0  0  0  0  0  0  0  0  0
  -27.0373   22.9395  -33.0963 C   0  0  0  0  0  0  0  0  0  0  0  0
  -26.9391   22.0501  -32.0388 C   0  0  0  0  0  0  0  0  0  0  0  0
  -26.2323   20.7672  -32.2198 C   0  0  0  0  0  0  0  0  0  0  0  0
  -28.4484   20.4819  -29.4945 C   0  0  0  0  0  0  0  0  0  0  0  0
  1  2  1  0
  2  3  1  0
  3  4  2  0
  4  5  1  0
  5  6  1  0
  6  7  1  0
  7  8  1  0
  8  9  1  0
  9 10  1  0
  9 11  1  0
 11 12  1  0
  5 13  2  0
 13 14  1  0
 14 15  2  0
 15 16  1  0
 16 17  1  0
 17 18  2  0
 18 19  1  0
 19 20  2  0
 20 21  1  0
 21 22  2  0
 21 23  1  0
 23 24  1  0
 24 25  1  0
 25 26  1  0
 26 27  1  0
 23 28  1  0
 28 29  2  0
 28 30  1  0
 30 31  1  0
 31 32  2  0
 32 33  1  0
 32 34  1  0
 34 35  2  0
 35 36  1  0
 36 37  2  0
 37 38  1  0
 30 39  1  0
 15  3  1  0
 22 17  1  0
 27 24  1  0
 37 31  1  0
 12  6  1  0
 39 20  1  0
M  END
$$$$
