
     RDKit          3D

 20 22  0  0  0  0  0  0  0  0999 V2000
  -17.8700   39.6238  -19.7780 N   0  0  0  0  0  0  0  0  0  0  0  0
  -17.9943   38.5543  -20.6964 C   0  0  0  0  0  0  0  0  0  0  0  0
  -17.3181   37.3871  -20.4847 N   0  0  0  0  0  0  0  0  0  0  0  0
  -17.4031   36.3437  -21.3264 C   0  0  0  0  0  0  0  0  0  0  0  0
  -16.5817   34.9785  -21.0332 S   0  0  0  0  0  0  0  0  0  0  0  0
  -18.2007   36.4506  -22.4457 C   0  0  0  0  0  0  0  0  0  0  0  0
  -18.5152   35.6338  -23.4755 N   0  0  0  0  0  0  0  0  0  0  0  0
  -19.3620   36.2435  -24.3240 C   0  0  0  0  0  0  0  0  0  0  0  0
  -19.6066   37.4746  -23.8464 N   0  0  0  0  0  0  0  0  0  0  0  0
  -20.4669   38.4743  -24.4483 C   0  0  0  0  0  0  0  0  0  0  0  0
  -21.1612   37.9913  -25.5202 O   0  0  0  0  0  0  0  0  0  0  0  0
  -20.7502   38.6023  -26.6683 C   0  0  0  0  0  0  0  0  0  0  0  0
  -21.9297   38.8324  -27.6150 C   0  0  0  0  0  0  0  0  0  0  0  0
  -21.4632   39.3075  -28.8383 O   0  0  0  0  0  0  0  0  0  0  0  0
  -20.0488   39.8660  -26.3346 C   0  0  0  0  0  0  0  0  0  0  0  0
  -18.8464   40.0198  -27.0327 O   0  0  0  0  0  0  0  0  0  0  0  0
  -19.6923   39.6923  -24.8806 C   0  0  0  0  0  0  0  0  0  0  0  0
  -18.3407   39.4155  -24.7068 O   0  0  0  0  0  0  0  0  0  0  0  0
  -18.9030   37.6218  -22.6936 C   0  0  0  0  0  0  0  0  0  0  0  0
  -18.7585   38.6133  -21.7986 N   0  0  0  0  0  0  0  0  0  0  0  0
  1  2  1  0
  2  3  2  0
  3  4  1  0
  4  5  2  0
  4  6  1  0
  6  7  1  0
  7  8  2  0
  8  9  1  0
  9 10  1  0
 10 11  1  0
 11 12  1  0
 12 13  1  0
 13 14  1  0
 12 15  1  0
 15 16  1  0
 15 17  1  0
 17 18  1  0
  9 19  1  0
 19 20  1  0
 20  2  1  0
 19  6  2  0
 17 10  1  0
M  END
$$$$
