
     RDKit          3D

 31 33  0  0  0  0  0  0  0  0999 V2000
  -20.6152   38.9634  -27.1630 C   0  0  0  0  0  0  0  0  0  0  0  0
  -20.5598   37.9763  -26.1617 O   0  0  0  0  0  0  0  0  0  0  0  0
  -20.0156   38.2556  -24.9326 C   0  0  0  0  0  0  0  0  0  0  0  0
  -19.5708   39.5673  -24.6924 C   0  0  0  0  0  0  0  0  0  0  0  0
  -19.0152   39.9307  -23.4914 C   0  0  0  0  0  0  0  0  0  0  0  0
  -18.9053   38.9570  -22.5167 C   0  0  0  0  0  0  0  0  0  0  0  0
  -19.3332   37.6410  -22.7103 C   0  0  0  0  0  0  0  0  0  0  0  0
  -19.8830   37.3242  -23.9280 C   0  0  0  0  0  0  0  0  0  0  0  0
  -20.3480   35.9342  -24.1723 C   0  0  0  0  0  0  0  0  0  0  0  0
  -19.9302   34.9998  -23.1014 C   0  0  0  0  0  0  0  0  0  0  0  0
  -20.8346   34.6384  -22.1232 C   0  0  0  0  0  0  0  0  0  0  0  0
  -20.4778   33.7749  -21.1175 C   0  0  0  0  0  0  0  0  0  0  0  0
  -19.1976   33.2730  -21.1003 C   0  0  0  0  0  0  0  0  0  0  0  0
  -18.3003   33.6251  -22.0617 C   0  0  0  0  0  0  0  0  0  0  0  0
  -16.6471   33.0052  -22.0783 Cl  0  0  0  0  0  0  0  0  0  0  0  0
  -18.6463   34.4883  -23.0729 C   0  0  0  0  0  0  0  0  0  0  0  0
  -17.7976   34.8646  -24.0421 F   0  0  0  0  0  0  0  0  0  0  0  0
  -18.3524   39.2570  -21.2949 C   0  0  0  0  0  0  0  0  0  0  0  0
  -18.2497   38.3719  -20.4016 O   0  0  0  0  0  0  0  0  0  0  0  0
  -17.9292   40.5364  -21.1037 C   0  0  0  0  0  0  0  0  0  0  0  0
  -17.3407   40.8633  -19.8099 C   0  0  0  0  0  0  0  0  0  0  0  0
  -17.2506   42.0514  -19.4598 O   0  0  0  0  0  0  0  0  0  0  0  0
  -16.8904   39.8528  -18.9888 O   0  0  0  0  0  0  0  0  0  0  0  0
  -18.0576   41.4740  -22.1000 C   0  0  0  0  0  0  0  0  0  0  0  0
  -18.5849   41.2242  -23.2891 N   0  0  0  0  0  0  0  0  0  0  0  0
  -18.7411   42.1673  -24.3407 C   0  0  2  0  0  0  0  0  0  0  0  0
  -17.4274   42.1850  -25.1175 C   0  0  0  0  0  0  0  0  0  0  0  0
  -16.3789   42.7449  -24.4431 O   0  0  0  0  0  0  0  0  0  0  0  0
  -19.1928   43.5522  -23.9705 C   0  0  0  0  0  0  0  0  0  0  0  0
  -20.6099   43.4171  -23.3008 C   0  0  0  0  0  0  0  0  0  0  0  0
  -19.3928   44.5662  -25.0125 C   0  0  0  0  0  0  0  0  0  0  0  0
  1  2  1  0
  2  3  1  0
  3  4  2  0
  4  5  1  0
  5  6  2  0
  6  7  1  0
  7  8  2  0
  8  9  1  0
  9 10  1  0
 10 11  2  0
 11 12  1  0
 12 13  2  0
 13 14  1  0
 14 15  1  0
 14 16  2  0
 16 17  1  0
  6 18  1  0
 18 19  2  0
 18 20  1  0
 20 21  1  0
 21 22  2  0
 21 23  1  0
 20 24  2  0
 24 25  1  0
 25 26  1  0
 26 27  1  1
 27 28  1  0
 26 29  1  0
 29 30  1  0
 29 31  1  0
  8  3  1  0
 16 10  1  0
 25  5  1  0
M  END
$$$$
