
     RDKit          3D

 32 35  0  0  0  0  0  0  0  0999 V2000
  -23.0725   -1.5301  -38.7977 C   0  0  0  0  0  0  0  0  0  0  0  0
  -22.1997   -0.4698  -38.2743 N   0  0  0  0  0  0  0  0  0  0  0  0
  -22.9576    0.2787  -37.3158 C   0  0  0  0  0  0  0  0  0  0  0  0
  -22.0571    1.2313  -36.5903 C   0  0  0  0  0  0  0  0  0  0  0  0
  -20.9780    0.5585  -35.9394 N   0  0  0  0  0  0  0  0  0  0  0  0
  -20.7751    0.9375  -34.2968 S   0  0  0  0  0  6  0  0  0  0  0  0
  -20.6855    2.4523  -34.1877 O   0  0  0  0  0  0  0  0  0  0  0  0
  -22.0667    0.5708  -33.5780 O   0  0  0  0  0  0  0  0  0  0  0  0
  -19.4111    0.1686  -33.5565 C   0  0  0  0  0  0  0  0  0  0  0  0
  -18.1476    0.6901  -33.6720 C   0  0  0  0  0  0  0  0  0  0  0  0
  -17.0820    0.0342  -33.0577 C   0  0  0  0  0  0  0  0  0  0  0  0
  -17.2443   -1.1159  -32.3391 C   0  0  0  0  0  0  0  0  0  0  0  0
  -16.1601   -1.8283  -31.6840 C   0  0  0  0  0  0  0  0  0  0  0  0
  -16.3893   -2.7124  -30.6596 C   0  0  0  0  0  0  0  0  0  0  0  0
  -15.3849   -3.3887  -30.0352 N   0  0  0  0  0  0  0  0  0  0  0  0
  -14.1184   -3.1786  -30.4420 C   0  0  0  0  0  0  0  0  0  0  0  0
  -13.0369   -3.8600  -29.8219 N   0  0  0  0  0  0  0  0  0  0  0  0
  -13.8451   -2.3000  -31.4661 C   0  0  0  0  0  0  0  0  0  0  0  0
  -12.4618   -2.1091  -31.8662 C   0  0  0  0  0  0  0  0  0  0  0  0
  -11.5427   -2.7395  -31.2899 O   0  0  0  0  0  0  0  0  0  0  0  0
  -12.0694   -1.2224  -32.9055 N   0  0  0  0  0  0  0  0  0  0  0  0
  -10.7239   -0.9818  -33.2762 C   0  0  0  0  0  0  0  0  0  0  0  0
  -10.4042   -0.4198  -34.4926 C   0  0  0  0  0  0  0  0  0  0  0  0
   -9.0668   -0.2027  -34.8120 C   0  0  0  0  0  0  0  0  0  0  0  0
   -8.0426   -0.5322  -33.9487 C   0  0  0  0  0  0  0  0  0  0  0  0
   -8.3911   -1.0804  -32.7669 N   0  0  0  0  0  0  0  0  0  0  0  0
   -9.6771   -1.3059  -32.4221 C   0  0  0  0  0  0  0  0  0  0  0  0
  -14.8671   -1.6480  -32.0609 N   0  0  0  0  0  0  0  0  0  0  0  0
  -18.5277   -1.6358  -32.2280 C   0  0  0  0  0  0  0  0  0  0  0  0
  -19.5860   -0.9859  -32.8372 C   0  0  0  0  0  0  0  0  0  0  0  0
  -20.8505   -0.8287  -36.2588 C   0  0  0  0  0  0  0  0  0  0  0  0
  -20.9813   -1.0244  -37.7544 C   0  0  0  0  0  0  0  0  0  0  0  0
  1  2  1  0
  2  3  1  0
  3  4  1  0
  4  5  1  0
  5  6  1  0
  6  7  2  0
  6  8  2  0
  6  9  1  0
  9 10  2  0
 10 11  1  0
 11 12  2  0
 12 13  1  0
 13 14  2  0
 14 15  1  0
 15 16  2  0
 16 17  1  0
 16 18  1  0
 18 19  1  0
 19 20  2  0
 19 21  1  0
 21 22  1  0
 22 23  2  0
 23 24  1  0
 24 25  2  0
 25 26  1  0
 26 27  2  0
 18 28  2  0
 12 29  1  0
 29 30  2  0
  5 31  1  0
 31 32  1  0
 32  2  1  0
 30  9  1  0
 28 13  1  0
 27 22  1  0
M  END
$$$$
