
     RDKit          3D

 25 27  0  0  0  0  0  0  0  0999 V2000
  -23.0399   18.4131  -35.5786 C   0  0  0  0  0  0  0  0  0  0  0  0
  -23.2970   17.4735  -34.4738 C   0  0  0  0  0  0  0  0  0  0  0  0
  -24.1510   16.3995  -34.7246 C   0  0  0  0  0  0  0  0  0  0  0  0
  -24.4424   15.4710  -33.7481 C   0  0  0  0  0  0  0  0  0  0  0  0
  -23.9004   15.5678  -32.4836 C   0  0  0  0  0  0  0  0  0  0  0  0
  -24.1981   14.6265  -31.4995 O   0  0  0  0  0  0  0  0  0  0  0  0
  -23.0591   16.6338  -32.2511 C   0  0  0  0  0  0  0  0  0  0  0  0
  -22.7499   17.5863  -33.2255 C   0  0  0  0  0  0  0  0  0  0  0  0
  -21.8840   18.6203  -32.8685 N   0  0  0  0  0  0  0  0  0  0  0  0
  -22.1281   19.6714  -31.9529 C   0  0  0  0  0  0  0  0  0  0  0  0
  -21.2092   20.6809  -31.8124 C   0  0  0  0  0  0  0  0  0  0  0  0
  -21.4011   21.7410  -30.9381 C   0  0  0  0  0  0  0  0  0  0  0  0
  -22.5465   21.7148  -30.2369 N   0  0  0  0  0  0  0  0  0  0  0  0
  -23.4742   20.7589  -30.3332 C   0  0  0  0  0  0  0  0  0  0  0  0
  -24.6615   20.7918  -29.5668 N   0  0  0  0  0  0  0  0  0  0  0  0
  -25.6282   19.8024  -29.4277 C   0  0  0  0  0  0  0  0  0  0  0  0
  -25.6898   18.6871  -30.2043 C   0  0  0  0  0  0  0  0  0  0  0  0
  -26.6835   17.7051  -30.0578 C   0  0  0  0  0  0  0  0  0  0  0  0
  -27.6314   17.8980  -29.0760 C   0  0  0  0  0  0  0  0  0  0  0  0
  -27.6195   19.0088  -28.2584 C   0  0  0  0  0  0  0  0  0  0  0  0
  -28.6343   19.2039  -27.2185 C   0  0  0  0  0  0  0  0  0  0  0  0
  -28.5997   20.3544  -26.3915 N   0  0  0  0  0  0  0  0  0  0  0  0
  -29.5561   18.3750  -27.0234 O   0  0  0  0  0  0  0  0  0  0  0  0
  -26.6302   19.9389  -28.4398 C   0  0  0  0  0  0  0  0  0  0  0  0
  -23.2412   19.7424  -31.2024 N   0  0  0  0  0  0  0  0  0  0  0  0
  1  2  1  0
  2  3  2  0
  3  4  1  0
  4  5  2  0
  5  6  1  0
  5  7  1  0
  7  8  2  0
  8  9  1  0
  9 10  1  0
 10 11  2  0
 11 12  1  0
 12 13  2  0
 13 14  1  0
 14 15  1  0
 15 16  1  0
 16 17  2  0
 17 18  1  0
 18 19  2  0
 19 20  1  0
 20 21  1  0
 21 22  1  0
 21 23  2  0
 20 24  2  0
 14 25  2  0
  8  2  1  0
 25 10  1  0
 24 16  1  0
M  END
$$$$
