
     RDKit          3D

 17 19  0  0  0  0  0  0  0  0999 V2000
  -18.5991   41.3535  -19.5827 N   0  0  0  0  0  0  0  0  0  0  0  0
  -17.8318   40.5479  -20.4850 C   0  0  0  0  0  0  0  0  0  0  0  0
  -16.5950   40.8729  -20.8423 N   0  0  0  0  0  0  0  0  0  0  0  0
  -15.8889   40.1108  -21.6867 C   0  0  0  0  0  0  0  0  0  0  0  0
  -16.4326   38.9894  -22.1909 N   0  0  0  0  0  0  0  0  0  0  0  0
  -17.6869   38.5790  -21.8831 C   0  0  0  0  0  0  0  0  0  0  0  0
  -18.3982   39.3832  -21.0078 C   0  0  0  0  0  0  0  0  0  0  0  0
  -19.5907   38.7826  -20.8574 N   0  0  0  0  0  0  0  0  0  0  0  0
  -19.6087   37.6665  -21.6032 C   0  0  0  0  0  0  0  0  0  0  0  0
  -18.4376   37.5248  -22.2452 N   0  0  0  0  0  0  0  0  0  0  0  0
  -18.0575   36.4520  -23.1475 C   0  0  2  0  0  0  0  0  0  0  0  0
  -19.1581   36.1551  -24.1448 C   0  0  0  0  0  0  0  0  0  0  0  0
  -19.6385   34.7505  -23.8466 C   0  0  0  0  0  0  0  0  0  0  0  0
  -19.2866   34.6408  -22.3577 C   0  0  1  0  0  0  0  0  0  0  0  0
  -19.3304   33.3149  -21.9402 O   0  0  0  0  0  0  0  0  0  0  0  0
  -17.8672   35.1714  -22.4018 C   0  0  1  0  0  0  0  0  0  0  0  0
  -17.1212   34.2951  -23.1888 O   0  0  0  0  0  0  0  0  0  0  0  0
  1  2  1  0
  2  3  2  0
  3  4  1  0
  4  5  2  0
  5  6  1  0
  6  7  2  0
  7  8  1  0
  8  9  2  0
  9 10  1  0
 11 10  1  1
 11 12  1  0
 12 13  1  0
 13 14  1  0
 14 15  1  6
 14 16  1  0
 16 17  1  6
  7  2  1  0
 16 11  1  0
 10  6  1  0
M  END
$$$$
