
     RDKit          3D

 28 30  0  0  0  0  0  0  0  0999 V2000
  -18.7427   14.5339  -34.9616 C   0  0  0  0  0  0  0  0  0  0  0  0
  -19.7062   15.5582  -34.7422 C   0  0  0  0  0  0  0  0  0  0  0  0
  -21.0057   15.5808  -34.8205 C   0  0  0  0  0  0  0  0  0  0  0  0
  -21.8754   16.6396  -34.3391 C   0  0  0  0  0  0  0  0  0  0  0  0
  -23.2137   16.4814  -34.6140 C   0  0  0  0  0  0  0  0  0  0  0  0
  -24.4847   16.3305  -34.8834 N   0  0  0  0  0  0  0  0  0  0  0  0
  -21.2948   17.6951  -33.7627 C   0  0  0  0  0  0  0  0  0  0  0  0
  -19.9353   17.6185  -33.7214 C   0  0  0  0  0  0  0  0  0  0  0  0
  -19.4091   19.2180  -33.6780 C   0  0  0  0  0  0  0  0  0  0  0  0
  -19.0192   16.9351  -33.9970 C   0  0  0  0  0  0  0  0  0  0  0  0
  -17.7277   16.5673  -34.1046 O   0  0  0  0  0  0  0  0  0  0  0  0
  -16.9610   17.0624  -35.0849 C   0  0  0  0  0  0  0  0  0  0  0  0
  -17.3497   17.6237  -36.2105 N   0  0  0  0  0  0  0  0  0  0  0  0
  -16.9025   18.1678  -37.2832 C   0  0  0  0  0  0  0  0  0  0  0  0
  -17.4675   18.8087  -38.3720 N   0  0  0  0  0  0  0  0  0  0  0  0
  -18.9484   18.9138  -38.4801 C   0  0  0  0  0  0  0  0  0  0  0  0
  -19.4754   18.9688  -39.7465 C   0  0  0  0  0  0  0  0  0  0  0  0
  -20.8928   18.8404  -39.9257 C   0  0  0  0  0  0  0  0  0  0  0  0
  -21.6317   18.6519  -38.7867 C   0  0  0  0  0  0  0  0  0  0  0  0
  -23.0358   18.0883  -38.7520 C   0  0  0  0  0  0  0  0  0  0  0  0
  -24.0468   17.6887  -38.7436 N   0  0  0  0  0  0  0  0  0  0  0  0
  -21.0881   18.6080  -37.5110 C   0  0  0  0  0  0  0  0  0  0  0  0
  -19.6588   18.7603  -37.4141 C   0  0  0  0  0  0  0  0  0  0  0  0
  -15.4502   18.1746  -37.2192 N   0  0  0  0  0  0  0  0  0  0  0  0
  -14.8376   17.6022  -36.0779 C   0  0  0  0  0  0  0  0  0  0  0  0
  -13.3963   17.5859  -36.1766 N   0  0  0  0  0  0  0  0  0  0  0  0
  -15.5630   17.0945  -35.1227 C   0  0  0  0  0  0  0  0  0  0  0  0
  -14.6597   16.1641  -33.6287 Br  0  0  0  0  0  0  0  0  0  0  0  0
  1  2  1  0
  2  3  2  0
  3  4  1  0
  4  5  1  0
  5  6  3  0
  4  7  2  0
  7  8  1  0
  8  9  1  0
  8 10  2  0
 10 11  1  0
 11 12  1  0
 12 13  2  0
 13 14  1  0
 14 15  1  0
 15 16  1  0
 16 17  2  0
 17 18  1  0
 18 19  2  0
 19 20  1  0
 20 21  3  0
 19 22  1  0
 22 23  2  0
 14 24  2  0
 24 25  1  0
 25 26  1  0
 25 27  2  0
 27 28  1  0
 10  2  1  0
 27 12  1  0
 23 16  1  0
M  END
$$$$
