
     RDKit          3D

 21 22  0  0  0  0  0  0  0  0999 V2000
  -18.3570   38.2927  -21.1155 O   0  0  0  0  0  0  0  0  0  0  0  0
  -18.2925   38.3020  -22.3701 C   0  0  0  0  0  0  0  0  0  0  0  0
  -18.8241   37.2228  -23.1074 N   0  0  0  0  0  0  0  0  0  0  0  0
  -19.0496   35.9270  -22.5482 C   0  0  0  0  0  0  0  0  0  0  0  0
  -20.3078   35.3444  -22.5840 C   0  0  0  0  0  0  0  0  0  0  0  0
  -20.5613   34.1049  -22.0586 C   0  0  0  0  0  0  0  0  0  0  0  0
  -19.5456   33.3864  -21.4653 C   0  0  0  0  0  0  0  0  0  0  0  0
  -19.7430   32.0998  -20.9035 N   0  0  0  0  0  4  0  0  0  0  0  0
  -19.2550   31.8448  -19.7865 O   0  0  0  0  0  0  0  0  0  0  0  0
  -20.4499   31.1095  -21.5300 O   0  0  0  0  0  1  0  0  0  0  0  0
  -18.2856   33.9716  -21.4303 C   0  0  0  0  0  0  0  0  0  0  0  0
  -18.0269   35.2172  -21.9573 C   0  0  0  0  0  0  0  0  0  0  0  0
  -16.7612   35.7886  -21.9143 O   0  0  0  0  0  0  0  0  0  0  0  0
  -17.6840   39.4003  -23.0371 N   0  0  0  0  0  0  0  0  0  0  0  0
  -17.7276   40.7009  -22.4283 C   0  0  0  0  0  0  0  0  0  0  0  0
  -16.9626   41.0179  -21.3330 C   0  0  0  0  0  0  0  0  0  0  0  0
  -17.0284   42.2782  -20.7717 C   0  0  0  0  0  0  0  0  0  0  0  0
  -17.8555   43.2565  -21.2836 C   0  0  0  0  0  0  0  0  0  0  0  0
  -18.6278   42.9379  -22.3887 C   0  0  0  0  0  0  0  0  0  0  0  0
  -18.5564   41.6771  -22.9433 C   0  0  0  0  0  0  0  0  0  0  0  0
  -19.6165   41.2171  -24.4717 Br  0  0  0  0  0  0  0  0  0  0  0  0
  1  2  2  0
  2  3  1  0
  3  4  1  0
  4  5  2  0
  5  6  1  0
  6  7  2  0
  7  8  1  0
  8  9  2  0
  8 10  1  0
  7 11  1  0
 11 12  2  0
 12 13  1  0
  2 14  1  0
 14 15  1  0
 15 16  2  0
 16 17  1  0
 17 18  2  0
 18 19  1  0
 19 20  2  0
 20 21  1  0
 12  4  1  0
 20 15  1  0
M  CHG  2   8   1  10  -1
M  END
$$$$
