
     RDKit          3D

  9  7  0  0  0  0  0  0  0  0999 V2000
  -18.1423   39.7017  -20.2838 C   0  0  0  0  0  0  0  0  0  0  0  0
  -18.0824   39.1806  -22.0357 P   0  0  0  0  0  5  0  0  0  0  0  0
  -18.8967   40.1471  -22.8303 O   0  0  0  0  0  0  0  0  0  0  0  0
  -16.4409   39.2201  -22.4841 O   0  0  0  0  0  0  0  0  0  0  0  0
  -18.7447   37.5055  -22.2253 C   0  0  0  0  0  0  0  0  0  0  0  0
  -17.5891   36.5288  -22.1540 C   0  0  0  0  0  0  0  0  0  0  0  0
  -18.1204   35.1133  -22.3109 C   0  0  0  0  0  0  0  0  0  0  0  0
  -18.7793   34.9462  -23.5523 N   0  0  0  0  0  0  0  0  0  0  0  0
  -18.3053   36.7265  -22.2120 Cl  0  0  0  0  0  0  0  0  0  0  0  0
  1  2  1  0
  2  3  2  0
  2  4  1  0
  2  5  1  0
  5  6  1  0
  6  7  1  0
  7  8  1  0
M  END
$$$$
