
     RDKit          3D

 34 38  0  0  0  0  0  0  0  0999 V2000
  -15.0384   13.5861  -31.5834 C   0  0  0  0  0  0  0  0  0  0  0  0
  -15.0692   14.9160  -32.3277 C   0  0  0  0  0  0  0  0  0  0  0  0
  -13.7792   15.0552  -33.0959 C   0  0  0  0  0  0  0  0  0  0  0  0
  -15.1024   16.0075  -31.2783 C   0  0  0  0  0  0  0  0  0  0  0  0
  -16.5478   16.1637  -30.8538 C   0  0  0  0  0  0  0  0  0  0  0  0
  -17.3311   16.8578  -31.9868 C   0  0  2  0  0  0  0  0  0  0  0  0
  -17.1308   18.3158  -31.7027 C   0  0  0  0  0  0  0  0  0  0  0  0
  -17.7028   18.8000  -30.6956 O   0  0  0  0  0  0  0  0  0  0  0  0
  -16.3514   19.0920  -32.5135 O   0  0  0  0  0  0  0  0  0  0  0  0
  -18.7245   16.3961  -31.8692 C   0  0  0  0  0  0  0  0  0  0  0  0
  -19.6488   16.5968  -32.9993 C   0  0  0  0  0  0  0  0  0  0  0  0
  -19.0851   16.4619  -34.3650 C   0  0  2  0  0  0  0  0  0  0  0  0
  -19.3020   15.0199  -34.8435 C   0  0  0  0  0  0  0  0  0  0  0  0
  -17.6256   16.7019  -34.4397 C   0  0  0  0  0  0  0  0  0  0  0  0
  -17.0555   17.1517  -35.5355 C   0  0  0  0  0  0  0  0  0  0  0  0
  -17.7531   17.4765  -36.8174 C   0  0  0  0  0  0  0  0  0  0  0  0
  -19.1733   17.0766  -36.7031 C   0  0  2  0  0  0  0  0  0  0  0  0
  -20.0616   17.5328  -37.8365 C   0  0  1  0  0  0  0  0  0  0  0  0
  -20.4712   19.0024  -37.6768 C   0  0  0  0  0  0  0  0  0  0  0  0
  -19.4265   17.4250  -39.1785 C   0  0  0  0  0  0  0  0  0  0  0  0
  -20.1298   16.4347  -40.0953 C   0  0  1  0  0  0  0  0  0  0  0  0
  -19.9435   15.1269  -39.7142 O   0  0  0  0  0  0  0  0  0  0  0  0
  -21.6091   16.7252  -40.1928 C   0  0  2  0  0  0  0  0  0  0  0  0
  -21.8699   17.9504  -40.8139 O   0  0  0  0  0  0  0  0  0  0  0  0
  -22.2291   16.6208  -38.8260 C   0  0  0  0  0  0  0  0  0  0  0  0
  -22.9283   15.2446  -38.7900 C   0  0  0  0  0  0  0  0  0  0  0  0
  -23.3692   17.6103  -38.7561 C   0  0  0  0  0  0  0  0  0  0  0  0
  -21.2911   16.6552  -37.6967 C   0  0  2  0  0  0  0  0  0  0  0  0
  -22.0219   16.9587  -36.4302 C   0  0  0  0  0  0  0  0  0  0  0  0
  -21.2208   17.2774  -35.2467 C   0  0  0  0  0  0  0  0  0  0  0  0
  -19.7478   17.4183  -35.3541 C   0  0  1  0  0  0  0  0  0  0  0  0
  -19.2970   18.8132  -34.8997 C   0  0  0  0  0  0  0  0  0  0  0  0
  -16.7266   16.4385  -33.2802 C   0  0  2  0  0  0  0  0  0  0  0  0
  -16.2874   14.9900  -33.2344 C   0  0  0  0  0  0  0  0  0  0  0  0
  1  2  1  0
  2  3  1  0
  2  4  1  0
  4  5  1  0
  5  6  1  0
  6  7  1  1
  7  8  2  0
  7  9  1  0
  6 10  1  0
 10 11  1  0
 11 12  1  0
 12 13  1  6
 12 14  1  0
 14 15  2  0
 15 16  1  0
 17 16  1  6
 17 18  1  0
 18 19  1  1
 18 20  1  0
 20 21  1  0
 21 22  1  1
 21 23  1  0
 23 24  1  1
 23 25  1  0
 25 26  1  0
 25 27  1  0
 25 28  1  0
 28 29  1  1
 29 30  1  0
 30 31  1  0
 31 32  1  1
 14 33  1  0
 33 34  1  1
 34  2  1  0
 33  6  1  0
 31 12  1  0
 31 17  1  0
 28 18  1  0
M  END
$$$$
