
     RDKit          3D

 18 18  0  0  0  0  0  0  0  0999 V2000
  -16.4514   13.6257  -27.8580 N   0  0  0  0  0  0  0  0  0  0  0  0
  -15.8516   13.4723  -29.4941 S   0  0  0  0  0  6  0  0  0  0  0  0
  -16.4773   12.2807  -30.1467 O   0  0  0  0  0  0  0  0  0  0  0  0
  -14.3709   13.2326  -29.3923 O   0  0  0  0  0  0  0  0  0  0  0  0
  -16.1022   14.9499  -30.3885 C   0  0  0  0  0  0  0  0  0  0  0  0
  -15.4988   15.2263  -31.5866 C   0  0  0  0  0  0  0  0  0  0  0  0
  -15.7140   16.4274  -32.2773 C   0  0  0  0  0  0  0  0  0  0  0  0
  -16.5514   17.3931  -31.7766 C   0  0  0  0  0  0  0  0  0  0  0  0
  -16.8492   18.6359  -32.3795 N   0  0  0  0  0  0  0  0  0  0  0  0
  -17.8890   19.5221  -32.0379 C   0  0  0  0  0  0  0  0  0  0  0  0
  -18.6815   19.2017  -31.1477 O   0  0  0  0  0  0  0  0  0  0  0  0
  -18.0553   20.8365  -32.7223 C   0  0  0  0  0  0  0  0  0  0  0  0
  -19.4119   20.9700  -33.3361 C   0  0  0  0  0  0  0  0  0  0  0  0
  -20.2552   21.8185  -32.4870 C   0  0  0  0  0  0  0  0  0  0  0  0
  -19.8308   22.2777  -31.4147 O   0  0  0  0  0  0  0  0  0  0  0  0
  -21.5427   22.1113  -32.8896 O   0  0  0  0  0  1  0  0  0  0  0  0
  -17.1525   17.0770  -30.5500 C   0  0  0  0  0  0  0  0  0  0  0  0
  -16.9408   15.9092  -29.8810 C   0  0  0  0  0  0  0  0  0  0  0  0
  1  2  1  0
  2  3  2  0
  2  4  2  0
  2  5  1  0
  5  6  2  0
  6  7  1  0
  7  8  2  0
  8  9  1  0
  9 10  1  0
 10 11  2  0
 10 12  1  0
 12 13  1  0
 13 14  1  0
 14 15  2  0
 14 16  1  0
  8 17  1  0
 17 18  2  0
 18  5  1  0
M  CHG  1  16  -1
M  END
$$$$
