
     RDKit          3D

 18 19  0  0  0  0  0  0  0  0999 V2000
  -18.1485   40.6797  -20.6714 C   0  0  0  0  0  0  0  0  0  0  0  0
  -18.4310   40.4747  -22.1592 C   0  0  0  0  0  0  0  0  0  0  0  0
  -18.6927   41.8117  -22.8116 C   0  0  0  0  0  0  0  0  0  0  0  0
  -17.2971   39.7996  -22.7041 N   0  0  0  0  0  0  0  0  0  0  0  0
  -17.5914   38.6104  -23.4515 C   0  0  0  0  0  0  0  0  0  0  0  0
  -17.4801   37.3861  -22.5766 C   0  0  0  0  0  0  0  0  0  0  0  0
  -16.4083   36.6067  -23.0457 O   0  0  0  0  0  0  0  0  0  0  0  0
  -18.7692   36.6217  -22.6733 C   0  0  0  0  0  0  0  0  0  0  0  0
  -18.4907   35.2808  -22.9296 O   0  0  0  0  0  0  0  0  0  0  0  0
  -19.0237   34.2913  -22.1366 C   0  0  0  0  0  0  0  0  0  0  0  0
  -18.3284   33.8740  -21.0276 C   0  0  0  0  0  0  0  0  0  0  0  0
  -18.8806   32.8816  -20.2480 C   0  0  0  0  0  0  0  0  0  0  0  0
  -20.0979   32.3169  -20.5653 C   0  0  0  0  0  0  0  0  0  0  0  0
  -20.7708   32.7664  -21.6954 C   0  0  0  0  0  0  0  0  0  0  0  0
  -21.9643   32.3865  -22.2236 N   0  0  0  0  0  0  0  0  0  0  0  0
  -22.1677   33.1286  -23.3259 C   0  0  0  0  0  0  0  0  0  0  0  0
  -21.1301   33.9914  -23.5347 C   0  0  0  0  0  0  0  0  0  0  0  0
  -20.2332   33.7529  -22.4800 C   0  0  0  0  0  0  0  0  0  0  0  0
  1  2  1  0
  2  3  1  0
  2  4  1  0
  4  5  1  0
  5  6  1  0
  6  7  1  0
  6  8  1  0
  8  9  1  0
  9 10  1  0
 10 11  2  0
 11 12  1  0
 12 13  2  0
 13 14  1  0
 14 15  1  0
 15 16  1  0
 16 17  2  0
 17 18  1  0
 18 10  1  0
 18 14  2  0
M  END
$$$$
