
     RDKit          3D

 18 20  0  0  0  0  0  0  0  0999 V2000
  -19.9040   32.1952  -21.1697 C   0  0  0  0  0  0  0  0  0  0  0  0
  -20.4242   33.4415  -21.8008 C   0  0  0  0  0  0  0  0  0  0  0  0
  -19.3650   34.2370  -22.4704 C   0  0  0  0  0  0  0  0  0  0  0  0
  -18.1380   34.0301  -22.2713 O   0  0  0  0  0  0  0  0  0  0  0  0
  -19.6717   35.2903  -23.3855 N   0  0  0  0  0  0  0  0  0  0  0  0
  -18.6438   36.0146  -24.0975 C   0  0  0  0  0  0  0  0  0  0  0  0
  -18.0785   37.0500  -23.1360 C   0  0  2  0  0  0  0  0  0  0  0  0
  -19.1504   37.5379  -22.1340 C   0  0  0  0  0  0  0  0  0  0  0  0
  -18.4808   38.4477  -23.2038 C   0  0  1  0  0  0  0  0  0  0  0  0
  -17.6333   39.5096  -22.6147 C   0  0  0  0  0  0  0  0  0  0  0  0
  -16.6322   40.0602  -23.4279 C   0  0  0  0  0  0  0  0  0  0  0  0
  -15.7935   41.0570  -22.9967 C   0  0  0  0  0  0  0  0  0  0  0  0
  -15.9615   41.5173  -21.7118 C   0  0  0  0  0  0  0  0  0  0  0  0
  -16.9350   40.9979  -20.8871 C   0  0  0  0  0  0  0  0  0  0  0  0
  -17.7659   39.9996  -21.3363 C   0  0  0  0  0  0  0  0  0  0  0  0
  -18.6666   39.6687  -20.2240 C   0  0  0  0  0  0  0  0  0  0  0  0
  -17.8319   40.1122  -19.0153 C   0  0  0  0  0  0  0  0  0  0  0  0
  -17.2761   41.3177  -19.5554 O   0  0  0  0  0  0  0  0  0  0  0  0
  1  2  1  0
  2  3  1  0
  3  4  2  0
  3  5  1  0
  5  6  1  0
  7  6  1  6
  7  8  1  0
  8  9  1  0
  9 10  1  1
 10 11  2  0
 11 12  1  0
 12 13  2  0
 13 14  1  0
 14 15  2  0
 15 16  1  0
 16 17  1  0
 17 18  1  0
  9  7  1  0
 15 10  1  0
 18 14  1  0
M  END
$$$$
