
     RDKit          3D

 39 42  0  0  0  0  0  0  0  0999 V2000
  -22.4231   20.8867  -32.6707 C   0  0  0  0  0  0  0  0  0  0  0  0
  -21.8022   21.9340  -33.3609 O   0  0  0  0  0  0  0  0  0  0  0  0
  -20.8484   21.7194  -34.3603 C   0  0  0  0  0  0  0  0  0  0  0  0
  -20.5047   20.4256  -34.6801 C   0  0  0  0  0  0  0  0  0  0  0  0
  -19.5638   20.2306  -35.6662 C   0  0  0  0  0  0  0  0  0  0  0  0
  -18.9595   21.2538  -36.3366 C   0  0  0  0  0  0  0  0  0  0  0  0
  -17.9273   21.0493  -37.3817 C   0  0  0  0  0  0  0  0  0  0  0  0
  -18.1399   19.8705  -38.1851 N   0  0  0  0  0  0  0  0  0  0  0  0
  -17.5569   18.6741  -38.0532 C   0  0  0  0  0  0  0  0  0  0  0  0
  -16.4770   18.3001  -37.1499 C   0  0  0  0  0  0  0  0  0  0  0  0
  -16.8057   17.7959  -35.8038 C   0  0  0  0  0  0  0  0  0  0  0  0
  -15.5520   17.4359  -35.0692 C   0  0  0  0  0  0  0  0  0  0  0  0
  -14.8707   18.3415  -34.3002 C   0  0  0  0  0  0  0  0  0  0  0  0
  -13.7018   17.9849  -33.6225 C   0  0  0  0  0  0  0  0  0  0  0  0
  -13.2244   16.7058  -33.7265 C   0  0  0  0  0  0  0  0  0  0  0  0
  -13.9292   15.8003  -34.5114 C   0  0  0  0  0  0  0  0  0  0  0  0
  -15.0933   16.1510  -35.1879 C   0  0  0  0  0  0  0  0  0  0  0  0
  -18.1506   17.8776  -39.0076 N   0  0  0  0  0  0  0  0  0  0  0  0
  -19.0361   18.5984  -39.6578 N   0  0  0  0  0  0  0  0  0  0  0  0
  -19.0735   19.8525  -39.1881 C   0  0  0  0  0  0  0  0  0  0  0  0
  -19.9170   21.0014  -39.6116 C   0  0  1  0  0  0  0  0  0  0  0  0
  -19.4138   21.6116  -40.9003 C   0  0  0  0  0  0  0  0  0  0  0  0
  -20.1894   22.7579  -41.3790 C   0  0  0  0  0  0  0  0  0  0  0  0
  -19.8429   24.0987  -41.1351 C   0  0  0  0  0  0  0  0  0  0  0  0
  -20.7720   24.8909  -41.6720 N   0  0  0  0  0  0  0  0  0  0  0  0
  -21.7317   24.1521  -42.2689 C   0  0  0  0  0  0  0  0  0  0  0  0
  -22.8787   24.4196  -42.9596 C   0  0  0  0  0  0  0  0  0  0  0  0
  -23.6933   23.4434  -43.4861 C   0  0  0  0  0  0  0  0  0  0  0  0
  -23.2990   22.1408  -43.2862 C   0  0  0  0  0  0  0  0  0  0  0  0
  -22.1595   21.8178  -42.6012 C   0  0  0  0  0  0  0  0  0  0  0  0
  -21.3642   22.8268  -42.0842 C   0  0  0  0  0  0  0  0  0  0  0  0
  -21.2594   20.4993  -39.8045 N   0  0  0  0  0  0  0  0  0  0  0  0
  -22.3849   21.0621  -39.1327 C   0  0  0  0  0  0  0  0  0  0  0  0
  -22.2435   22.0214  -38.3431 O   0  0  0  0  0  0  0  0  0  0  0  0
  -23.7360   20.4999  -39.3765 C   0  0  0  0  0  0  0  0  0  0  0  0
  -24.7173   21.2263  -38.5886 N   0  0  0  0  0  0  0  0  0  0  0  0
  -19.3502   22.5506  -35.9681 C   0  0  0  0  0  0  0  0  0  0  0  0
  -20.2799   22.7990  -34.9958 C   0  0  0  0  0  0  0  0  0  0  0  0
  -19.3271   20.2415  -37.3058 Cl  0  0  0  0  0  0  0  0  0  0  0  0
  1  2  1  0
  2  3  1  0
  3  4  2  0
  4  5  1  0
  5  6  2  0
  6  7  1  0
  7  8  1  0
  8  9  1  0
  9 10  1  0
 10 11  1  0
 11 12  1  0
 12 13  2  0
 13 14  1  0
 14 15  2  0
 15 16  1  0
 16 17  2  0
  9 18  2  0
 18 19  1  0
 19 20  2  0
 20 21  1  0
 21 22  1  6
 22 23  1  0
 23 24  2  0
 24 25  1  0
 25 26  1  0
 26 27  2  0
 27 28  1  0
 28 29  2  0
 29 30  1  0
 30 31  2  0
 21 32  1  0
 32 33  1  0
 33 34  2  0
 33 35  1  0
 35 36  1  0
  6 37  1  0
 37 38  2  0
 38  3  1  0
 20  8  1  0
 31 23  1  0
 17 12  1  0
 31 26  1  0
M  END
$$$$
