
     RDKit          3D

 24 26  0  0  0  0  0  0  0  0999 V2000
  -16.0353   15.2793  -34.1623 O   0  0  0  0  0  0  0  0  0  0  0  0
  -16.2791   15.2754  -32.9286 C   0  0  0  0  0  0  0  0  0  0  0  0
  -17.5310   15.7704  -32.5284 N   0  0  0  0  0  0  0  0  0  0  0  0
  -18.7071   15.7864  -33.3501 C   0  0  0  0  0  0  0  0  0  0  0  0
  -19.1777   14.5910  -33.8375 C   0  0  0  0  0  0  0  0  0  0  0  0
  -20.2947   14.5232  -34.6288 C   0  0  0  0  0  0  0  0  0  0  0  0
  -20.9575   15.6880  -34.9395 C   0  0  0  0  0  0  0  0  0  0  0  0
  -20.4788   16.9067  -34.4434 C   0  0  0  0  0  0  0  0  0  0  0  0
  -19.3541   16.9470  -33.6502 C   0  0  0  0  0  0  0  0  0  0  0  0
  -18.8828   18.1873  -33.1565 N   0  0  0  0  0  0  0  0  0  0  0  0
  -19.8343   19.1590  -32.6573 C   0  0  0  0  0  0  0  0  0  0  0  0
  -19.3575   19.8830  -31.4379 C   0  0  0  0  0  0  0  0  0  0  0  0
  -18.1514   19.2057  -30.8447 C   0  0  0  0  0  0  0  0  0  0  0  0
  -17.0186   19.0910  -31.8376 C   0  0  0  0  0  0  0  0  0  0  0  0
  -17.4675   18.4903  -33.1465 C   0  0  0  0  0  0  0  0  0  0  0  0
  -15.2681   14.7690  -32.0224 C   0  0  0  0  0  0  0  0  0  0  0  0
  -13.9655   14.6629  -32.4532 C   0  0  0  0  0  0  0  0  0  0  0  0
  -12.9707   14.1909  -31.6384 C   0  0  0  0  0  0  0  0  0  0  0  0
  -13.2661   13.8103  -30.3569 C   0  0  0  0  0  0  0  0  0  0  0  0
  -14.5618   13.9038  -29.8930 C   0  0  0  0  0  0  0  0  0  0  0  0
  -14.8778   13.5092  -28.5589 N   0  0  0  0  0  4  0  0  0  0  0  0
  -13.9776   13.0602  -27.8223 O   0  0  0  0  0  0  0  0  0  0  0  0
  -16.1394   13.6160  -28.0837 O   0  0  0  0  0  1  0  0  0  0  0  0
  -15.5423   14.3813  -30.7322 C   0  0  0  0  0  0  0  0  0  0  0  0
  1  2  2  0
  2  3  1  0
  3  4  1  0
  4  5  2  0
  5  6  1  0
  6  7  2  0
  7  8  1  0
  8  9  2  0
  9 10  1  0
 10 11  1  0
 11 12  1  0
 12 13  1  0
 13 14  1  0
 14 15  1  0
  2 16  1  0
 16 17  2  0
 17 18  1  0
 18 19  2  0
 19 20  1  0
 20 21  1  0
 21 22  2  0
 21 23  1  0
 20 24  2  0
  9  4  1  0
 15 10  1  0
 24 16  1  0
M  CHG  2  21   1  23  -1
M  END
$$$$
