
     RDKit          3D

 41 45  0  0  0  0  0  0  0  0999 V2000
  -23.0580   16.2534  -35.6400 C   0  0  0  0  0  0  0  0  0  0  0  0
  -22.5545   17.2868  -35.0236 C   0  0  0  0  0  0  0  0  0  0  0  0
  -21.6328   17.1383  -33.9068 C   0  0  0  0  0  0  0  0  0  0  0  0
  -22.2139   17.0995  -32.7651 O   0  0  0  0  0  0  0  0  0  0  0  0
  -20.2432   17.0437  -34.0596 N   0  0  0  0  0  0  0  0  0  0  0  0
  -19.3415   17.7670  -33.2419 C   0  0  0  0  0  0  0  0  0  0  0  0
  -19.6467   18.8813  -32.4952 C   0  0  0  0  0  0  0  0  0  0  0  0
  -18.7655   19.5050  -31.6269 C   0  0  0  0  0  0  0  0  0  0  0  0
  -19.0973   20.6261  -30.8390 N   0  0  0  0  0  0  0  0  0  0  0  0
  -20.3667   21.1501  -30.5432 C   0  0  0  0  0  0  0  0  0  0  0  0
  -20.5856   22.4457  -30.4158 N   0  0  0  0  0  0  0  0  0  0  0  0
  -21.7511   23.0271  -30.1373 C   0  0  0  0  0  0  0  0  0  0  0  0
  -22.8366   22.1934  -29.9653 C   0  0  0  0  0  0  0  0  0  0  0  0
  -22.6214   20.8247  -30.0973 C   0  0  0  0  0  0  0  0  0  0  0  0
  -23.7738   19.9945  -29.9082 N   0  0  0  0  0  0  0  0  0  0  0  0
  -25.0347   20.4513  -29.9344 C   0  0  0  0  0  0  0  0  0  0  0  0
  -25.8412   19.3229  -29.7194 C   0  0  0  0  0  0  0  0  0  0  0  0
  -27.3215   19.4441  -29.7106 C   0  0  0  0  0  0  0  0  0  0  0  0
  -27.6989   20.6033  -28.9572 N   0  0  0  0  0  0  0  0  0  0  0  0
  -28.2662   21.6540  -29.7088 C   0  0  0  0  0  0  0  0  0  0  0  0
  -28.1259   20.4103  -27.6294 C   0  0  0  0  0  0  0  0  0  0  0  0
  -25.0331   18.2247  -29.5693 C   0  0  0  0  0  0  0  0  0  0  0  0
  -25.4439   16.8644  -29.3452 C   0  0  0  0  0  0  0  0  0  0  0  0
  -26.8272   16.6637  -29.1913 C   0  0  0  0  0  0  0  0  0  0  0  0
  -27.3139   15.3962  -28.9877 C   0  0  0  0  0  0  0  0  0  0  0  0
  -26.4677   14.3192  -28.9324 C   0  0  0  0  0  0  0  0  0  0  0  0
  -25.0974   14.5145  -29.0856 C   0  0  0  0  0  0  0  0  0  0  0  0
  -24.6027   15.7820  -29.2902 C   0  0  0  0  0  0  0  0  0  0  0  0
  -23.7577   18.7017  -29.6959 N   0  0  0  0  0  0  0  0  0  0  0  0
  -21.4140   20.3019  -30.3810 N   0  0  0  0  0  0  0  0  0  0  0  0
  -17.4812   18.9363  -31.5270 C   0  0  0  0  0  0  0  0  0  0  0  0
  -16.6259   19.5691  -30.6610 O   0  0  0  0  0  0  0  0  0  0  0  0
  -15.7841   18.9340  -29.7530 C   0  0  0  0  0  0  0  0  0  0  0  0
  -17.1825   17.8253  -32.2765 C   0  0  0  0  0  0  0  0  0  0  0  0
  -18.0664   17.2038  -33.1429 C   0  0  0  0  0  0  0  0  0  0  0  0
  -17.6876   16.0675  -33.9056 N   0  0  0  0  0  0  0  0  0  0  0  0
  -16.5653   16.0360  -34.8199 C   0  0  0  0  0  0  0  0  0  0  0  0
  -15.8997   14.6724  -34.5321 C   0  0  0  0  0  0  0  0  0  0  0  0
  -16.7134   13.6332  -34.9414 O   0  0  0  0  0  0  0  0  0  0  0  0
  -18.0517   13.9867  -35.0013 C   0  0  0  0  0  0  0  0  0  0  0  0
  -18.4593   14.8152  -33.8144 C   0  0  0  0  0  0  0  0  0  0  0  0
  1  2  2  0
  2  3  1  0
  3  4  2  0
  3  5  1  0
  5  6  1  0
  6  7  2  0
  7  8  1  0
  8  9  1  0
  9 10  1  0
 10 11  2  0
 11 12  1  0
 12 13  2  0
 13 14  1  0
 14 15  1  0
 15 16  1  0
 16 17  2  0
 17 18  1  0
 18 19  1  0
 19 20  1  0
 19 21  1  0
 17 22  1  0
 22 23  1  0
 23 24  2  0
 24 25  1  0
 25 26  2  0
 26 27  1  0
 27 28  2  0
 22 29  2  0
 14 30  2  0
  8 31  2  0
 31 32  1  0
 32 33  1  0
 31 34  1  0
 34 35  2  0
 35 36  1  0
 36 37  1  0
 37 38  1  0
 38 39  1  0
 39 40  1  0
 40 41  1  0
 35  6  1  0
 41 36  1  0
 30 10  1  0
 29 15  1  0
 28 23  1  0
M  END
$$$$
