
     RDKit          3D

 49 53  0  0  0  0  0  0  0  0999 V2000
  -24.7687   15.6892  -32.5013 C   0  0  0  0  0  0  0  0  0  0  0  0
  -23.9272   15.2290  -33.6731 C   0  0  0  0  0  0  0  0  0  0  0  0
  -24.2480   15.9805  -34.9296 C   0  0  0  0  0  0  0  0  0  0  0  0
  -23.4248   15.5324  -36.0891 C   0  0  2  0  0  0  0  0  0  0  0  0
  -22.0269   15.7384  -35.8203 N   0  0  0  0  0  0  0  0  0  0  0  0
  -21.2637   14.9060  -34.9565 C   0  0  0  0  0  0  0  0  0  0  0  0
  -21.8518   13.9520  -34.3785 O   0  0  0  0  0  0  0  0  0  0  0  0
  -19.8204   15.0709  -34.6820 C   0  0  2  0  0  0  0  0  0  0  0  0
  -19.4669   14.2291  -33.4883 C   0  0  1  0  0  0  0  0  0  0  0  0
  -18.0480   14.4700  -33.0202 C   0  0  0  0  0  0  0  0  0  0  0  0
  -18.1044   14.4019  -31.5067 C   0  0  0  0  0  0  0  0  0  0  0  0
  -19.5489   14.5486  -31.1599 C   0  0  0  0  0  0  0  0  0  0  0  0
  -20.2793   14.8960  -32.4113 C   0  0  1  0  0  0  0  0  0  0  0  0
  -20.2224   16.3629  -32.7829 C   0  0  0  0  0  0  0  0  0  0  0  0
  -19.5633   16.4145  -34.0895 N   0  0  0  0  0  0  0  0  0  0  0  0
  -18.8145   17.4104  -34.7063 C   0  0  0  0  0  0  0  0  0  0  0  0
  -17.8860   17.0236  -35.5253 O   0  0  0  0  0  0  0  0  0  0  0  0
  -18.9082   18.8659  -34.5632 C   0  0  1  0  0  0  0  0  0  0  0  0
  -20.0133   19.1982  -33.5968 N   0  0  0  0  0  0  0  0  0  0  0  0
  -21.3389   19.3353  -34.0608 C   0  0  0  0  0  0  0  0  0  0  0  0
  -21.7364   18.4871  -34.9239 O   0  0  0  0  0  0  0  0  0  0  0  0
  -22.2773   20.3844  -33.6217 C   0  0  1  0  0  0  0  0  0  0  0  0
  -22.4362   20.2501  -32.1754 N   0  0  0  0  0  0  0  0  0  0  0  0
  -23.5456   19.5365  -31.6745 C   0  0  0  0  0  0  0  0  0  0  0  0
  -24.3354   18.9014  -32.4501 O   0  0  0  0  0  0  0  0  0  0  0  0
  -23.7721   19.5393  -30.2342 C   0  0  0  0  0  0  0  0  0  0  0  0
  -22.6661   19.4095  -29.4043 C   0  0  0  0  0  0  0  0  0  0  0  0
  -22.8864   19.4187  -28.0659 N   0  0  0  0  0  0  0  0  0  0  0  0
  -24.1272   19.5483  -27.5479 C   0  0  0  0  0  0  0  0  0  0  0  0
  -25.2173   19.6768  -28.3940 C   0  0  0  0  0  0  0  0  0  0  0  0
  -24.9899   19.6666  -29.7065 N   0  0  0  0  0  0  0  0  0  0  0  0
  -21.8592   21.7866  -33.8789 C   0  0  0  0  0  0  0  0  0  0  0  0
  -20.7571   22.3073  -33.0158 C   0  0  0  0  0  0  0  0  0  0  0  0
  -20.4694   23.7305  -33.4131 C   0  0  0  0  0  0  0  0  0  0  0  0
  -21.5894   24.3358  -34.2262 C   0  0  0  0  0  0  0  0  0  0  0  0
  -21.7911   23.5855  -35.5186 C   0  0  0  0  0  0  0  0  0  0  0  0
  -21.5514   22.1047  -35.3171 C   0  0  0  0  0  0  0  0  0  0  0  0
  -17.7129   19.5817  -34.0244 C   0  0  0  0  0  0  0  0  0  0  0  0
  -17.0518   18.5672  -33.0398 C   0  0  0  0  0  0  0  0  0  0  0  0
  -16.6259   19.8333  -35.0507 C   0  0  0  0  0  0  0  0  0  0  0  0
  -18.0568   20.8163  -33.2696 C   0  0  0  0  0  0  0  0  0  0  0  0
  -23.8190   16.4553  -37.2405 C   0  0  0  0  0  0  0  0  0  0  0  0
  -24.9776   16.8955  -37.2834 O   0  0  0  0  0  0  0  0  0  0  0  0
  -22.8589   16.8092  -38.2570 C   0  0  0  0  0  0  0  0  0  0  0  0
  -22.9269   16.3415  -39.4453 O   0  0  0  0  0  0  0  0  0  0  0  0
  -21.7801   17.6901  -38.0117 N   0  0  0  0  0  0  0  0  0  0  0  0
  -21.1513   18.4336  -39.1040 C   0  0  0  0  0  0  0  0  0  0  0  0
  -21.4410   18.0784  -40.5112 C   0  0  0  0  0  0  0  0  0  0  0  0
  -22.0388   19.3528  -39.8910 C   0  0  0  0  0  0  0  0  0  0  0  0
  1  2  1  0
  2  3  1  0
  4  3  1  1
  4  5  1  0
  5  6  1  0
  6  7  2  0
  8  6  1  1
  8  9  1  0
  9 10  1  1
 10 11  1  0
 11 12  1  0
 13 12  1  1
 13 14  1  0
 14 15  1  0
 15 16  1  0
 16 17  2  0
 16 18  1  0
 18 19  1  1
 19 20  1  0
 20 21  2  0
 20 22  1  0
 22 23  1  1
 23 24  1  0
 24 25  2  0
 24 26  1  0
 26 27  2  0
 27 28  1  0
 28 29  2  0
 29 30  1  0
 30 31  2  0
 22 32  1  0
 32 33  1  0
 33 34  1  0
 34 35  1  0
 35 36  1  0
 36 37  1  0
 18 38  1  0
 38 39  1  0
 38 40  1  0
 38 41  1  0
  4 42  1  0
 42 43  2  0
 42 44  1  0
 44 45  2  0
 44 46  1  0
 46 47  1  0
 47 48  1  0
 48 49  1  0
 15  8  1  0
 31 26  1  0
 37 32  1  0
 49 47  1  0
 13  9  1  0
M  END
$$$$
