
     RDKit          3D

 31 35  0  0  0  0  0  0  0  0999 V2000
  -21.6209   22.9472  -43.8729 C   0  0  0  0  0  0  0  0  0  0  0  0
  -20.1618   22.4720  -43.9740 C   0  0  0  0  0  0  0  0  0  0  0  0
  -19.6665   23.0142  -45.2999 C   0  0  0  0  0  0  0  0  0  0  0  0
  -20.1847   21.1053  -44.0800 O   0  0  0  0  0  0  0  0  0  0  0  0
  -19.2345   20.5607  -43.2372 C   0  0  2  0  0  0  0  0  0  0  0  0
  -19.9819   19.7735  -42.1415 C   0  0  0  0  0  0  0  0  0  0  0  0
  -20.1301   20.8420  -41.1118 C   0  0  1  0  0  0  0  0  0  0  0  0
  -20.5127   20.3999  -39.7359 C   0  0  2  0  0  0  0  0  0  0  0  0
  -21.8051   19.6041  -39.7695 C   0  0  0  0  0  0  0  0  0  0  0  0
  -22.0300   19.0926  -38.3598 C   0  0  2  0  0  0  0  0  0  0  0  0
  -23.0470   18.2154  -38.2386 F   0  0  0  0  0  0  0  0  0  0  0  0
  -22.2753   20.3721  -37.5813 C   0  0  0  0  0  0  0  0  0  0  0  0
  -23.4112   20.5659  -37.0047 C   0  0  0  0  0  0  0  0  0  0  0  0
  -23.7399   21.7741  -36.2406 C   0  0  0  0  0  0  0  0  0  0  0  0
  -24.8460   21.9488  -35.6841 O   0  0  0  0  0  0  0  0  0  0  0  0
  -22.6851   22.7654  -36.1715 C   0  0  0  0  0  0  0  0  0  0  0  0
  -21.5407   22.5262  -36.7701 C   0  0  0  0  0  0  0  0  0  0  0  0
  -21.1774   21.3480  -37.5173 C   0  0  1  0  0  0  0  0  0  0  0  0
  -20.0817   20.6716  -36.6663 C   0  0  0  0  0  0  0  0  0  0  0  0
  -20.6482   21.6558  -38.8961 C   0  0  1  0  0  0  0  0  0  0  0  0
  -19.3465   22.3735  -38.8805 C   0  0  1  0  0  0  0  0  0  0  0  0
  -18.3274   21.7257  -38.1878 O   0  0  0  0  0  0  0  0  0  0  0  0
  -18.8098   22.6617  -40.2504 C   0  0  0  0  0  0  0  0  0  0  0  0
  -18.7472   21.4208  -41.1031 C   0  0  1  0  0  0  0  0  0  0  0  0
  -17.6832   20.4662  -40.7304 C   0  0  0  0  0  0  0  0  0  0  0  0
  -18.6259   21.7558  -42.5774 C   0  0  1  0  0  0  0  0  0  0  0  0
  -17.2187   21.9835  -42.9086 C   0  0  0  0  0  0  0  0  0  0  0  0
  -16.6384   22.9549  -42.4548 O   0  0  0  0  0  0  0  0  0  0  0  0
  -16.4222   21.0847  -43.7914 C   0  0  0  0  0  0  0  0  0  0  0  0
  -15.2295   20.7636  -43.1765 O   0  0  0  0  0  0  0  0  0  0  0  0
  -19.4301   22.8595  -42.8863 O   0  0  0  0  0  0  0  0  0  0  0  0
  1  2  1  0
  2  3  1  0
  2  4  1  0
  4  5  1  0
  5  6  1  1
  7  6  1  6
  7  8  1  0
  8  9  1  6
  9 10  1  0
 10 11  1  6
 10 12  1  0
 12 13  2  0
 13 14  1  0
 14 15  2  0
 14 16  1  0
 16 17  2  0
 17 18  1  0
 18 19  1  1
 18 20  1  0
 20 21  1  1
 21 22  1  1
 21 23  1  0
 23 24  1  0
 24 25  1  1
 24 26  1  0
 26 27  1  6
 27 28  2  0
 27 29  1  0
 29 30  1  0
 26 31  1  0
 31  2  1  0
 26  5  1  0
 24  7  1  0
 20  8  1  0
 18 12  1  0
M  END
$$$$
