
     RDKit          3D

 12 13  0  0  0  0  0  0  0  0999 V2000
  -19.4706   45.0251  -19.4043 O   0  0  0  0  0  0  0  0  0  0  0  0
  -19.2083   44.1622  -20.2852 C   0  0  0  0  0  0  0  0  0  0  0  0
  -18.6884   44.4945  -21.6249 C   0  0  0  0  0  0  0  0  0  0  0  0
  -18.2867   43.1784  -22.2478 C   0  0  0  0  0  0  0  0  0  0  0  0
  -18.5989   42.1592  -21.2671 N   0  0  0  0  0  0  0  0  0  0  0  0
  -18.1948   40.8039  -21.3976 C   0  0  0  0  0  0  0  0  0  0  0  0
  -18.3614   39.8880  -20.3681 C   0  0  0  0  0  0  0  0  0  0  0  0
  -17.9808   38.5694  -20.4630 C   0  0  0  0  0  0  0  0  0  0  0  0
  -17.4060   38.1430  -21.6422 C   0  0  0  0  0  0  0  0  0  0  0  0
  -17.2164   39.0076  -22.6965 C   0  0  0  0  0  0  0  0  0  0  0  0
  -17.6153   40.3195  -22.5503 C   0  0  0  0  0  0  0  0  0  0  0  0
  -19.3314   42.7466  -20.2342 N   0  0  0  0  0  0  0  0  0  0  0  0
  1  2  2  0
  2  3  1  0
  3  4  1  0
  4  5  1  0
  5  6  1  0
  6  7  2  0
  7  8  1  0
  8  9  2  0
  9 10  1  0
 10 11  2  0
  5 12  1  0
 12  2  1  0
 11  6  1  0
M  END
$$$$
