
     RDKit          3D

 22 24  0  0  0  0  0  0  0  0999 V2000
  -30.0602   15.5442  -25.3451 C   0  0  0  0  0  0  0  0  0  0  0  0
  -29.1286   15.5162  -26.3966 O   0  0  0  0  0  0  0  0  0  0  0  0
  -28.6792   16.6423  -27.0669 C   0  0  0  0  0  0  0  0  0  0  0  0
  -28.5699   17.8962  -26.5110 C   0  0  0  0  0  0  0  0  0  0  0  0
  -28.1162   18.9985  -27.2141 C   0  0  0  0  0  0  0  0  0  0  0  0
  -28.0227   20.2203  -26.6256 N   0  0  0  0  0  0  0  0  0  0  0  0
  -27.5859   21.2999  -27.2866 C   0  0  0  0  0  0  0  0  0  0  0  0
  -27.2309   21.1640  -28.5702 N   0  0  0  0  0  0  0  0  0  0  0  0
  -27.3003   19.9721  -29.2170 C   0  0  0  0  0  0  0  0  0  0  0  0
  -26.9172   19.8803  -30.5630 N   0  0  0  0  0  0  0  0  0  0  0  0
  -26.3246   20.9837  -31.2605 C   0  0  0  0  0  0  0  0  0  0  0  0
  -26.3736   21.0213  -32.6531 C   0  0  0  0  0  0  0  0  0  0  0  0
  -25.8014   22.0474  -33.3638 C   0  0  0  0  0  0  0  0  0  0  0  0
  -25.1598   23.0726  -32.7137 C   0  0  0  0  0  0  0  0  0  0  0  0
  -25.0925   23.0667  -31.3387 C   0  0  0  0  0  0  0  0  0  0  0  0
  -24.2780   24.3662  -30.4943 Cl  0  0  0  0  0  0  0  0  0  0  0  0
  -25.6793   22.0156  -30.6287 C   0  0  0  0  0  0  0  0  0  0  0  0
  -27.7531   18.8481  -28.5345 C   0  0  0  0  0  0  0  0  0  0  0  0
  -27.8514   17.6083  -29.1157 C   0  0  0  0  0  0  0  0  0  0  0  0
  -28.3139   16.5059  -28.3834 C   0  0  0  0  0  0  0  0  0  0  0  0
  -28.3888   15.2687  -29.0393 O   0  0  0  0  0  0  0  0  0  0  0  0
  -27.2229   14.6684  -29.5890 C   0  0  0  0  0  0  0  0  0  0  0  0
  1  2  1  0
  2  3  1  0
  3  4  2  0
  4  5  1  0
  5  6  2  0
  6  7  1  0
  7  8  2  0
  8  9  1  0
  9 10  1  0
 10 11  1  0
 11 12  2  0
 12 13  1  0
 13 14  2  0
 14 15  1  0
 15 16  1  0
 15 17  2  0
  9 18  2  0
 18 19  1  0
 19 20  2  0
 20 21  1  0
 21 22  1  0
 20  3  1  0
 18  5  1  0
 17 11  1  0
M  END
$$$$
