
     RDKit          3D

 38 40  0  0  0  0  0  0  0  0999 V2000
  -19.1530   32.3155  -25.8272 C   0  0  0  0  0  0  0  0  0  0  0  0
  -18.7582   33.7862  -25.9120 C   0  0  0  0  0  0  0  0  0  0  0  0
  -18.6848   34.2594  -27.3129 C   0  0  0  0  0  0  0  0  0  0  0  0
  -18.3089   35.6756  -27.4643 C   0  0  0  0  0  0  0  0  0  0  0  0
  -19.1222   36.6837  -26.8575 N   0  0  0  0  0  0  0  0  0  0  0  0
  -20.3267   37.1782  -27.5838 C   0  0  0  0  0  0  0  0  0  0  0  0
  -21.4723   36.3338  -27.0853 C   0  0  0  0  0  0  0  0  0  0  0  0
  -22.7965   36.6735  -27.7164 C   0  0  0  0  0  0  0  0  0  0  0  0
  -22.7116   36.4584  -29.1919 C   0  0  0  0  0  0  0  0  0  0  0  0
  -18.8829   37.2822  -25.6016 C   0  0  0  0  0  0  0  0  0  0  0  0
  -19.7185   38.1785  -25.2057 O   0  0  0  0  0  0  0  0  0  0  0  0
  -17.7779   37.0059  -24.6808 C   0  0  0  0  0  0  0  0  0  0  0  0
  -17.7347   37.7585  -23.4891 N   0  0  0  0  0  0  0  0  0  0  0  0
  -17.4478   39.1526  -23.5726 C   0  0  0  0  0  0  0  0  0  0  0  0
  -18.1336   39.8015  -22.3759 C   0  0  2  0  0  0  0  0  0  0  0  0
  -17.2893   40.8194  -21.7122 C   0  0  0  0  0  0  0  0  0  0  0  0
  -16.0961   40.5455  -21.1081 C   0  0  0  0  0  0  0  0  0  0  0  0
  -15.3731   41.5570  -20.5107 C   0  0  0  0  0  0  0  0  0  0  0  0
  -15.8372   42.8589  -20.5108 C   0  0  0  0  0  0  0  0  0  0  0  0
  -17.0374   43.1492  -21.1157 C   0  0  0  0  0  0  0  0  0  0  0  0
  -17.7419   42.1276  -21.7049 C   0  0  0  0  0  0  0  0  0  0  0  0
  -17.2730   44.5081  -20.9791 O   0  0  0  0  0  0  0  0  0  0  0  0
  -16.0701   45.1497  -20.5593 C   0  0  0  0  0  0  0  0  0  0  0  0
  -15.3441   44.0674  -20.0006 O   0  0  0  0  0  0  0  0  0  0  0  0
  -18.3785   38.6034  -21.4847 C   0  0  1  0  0  0  0  0  0  0  0  0
  -19.4960   38.8293  -20.5397 C   0  0  0  0  0  0  0  0  0  0  0  0
  -19.2458   38.7431  -19.3112 O   0  0  0  0  0  0  0  0  0  0  0  0
  -20.7779   39.1255  -20.9277 O   0  0  0  0  0  0  0  0  0  0  0  0
  -18.7873   37.5681  -22.5541 C   0  0  2  0  0  0  0  0  0  0  0  0
  -18.9351   36.2306  -21.9964 C   0  0  0  0  0  0  0  0  0  0  0  0
  -17.8660   35.4741  -21.6197 C   0  0  0  0  0  0  0  0  0  0  0  0
  -18.0251   34.1932  -21.0735 C   0  0  0  0  0  0  0  0  0  0  0  0
  -19.3063   33.6990  -20.9192 C   0  0  0  0  0  0  0  0  0  0  0  0
  -19.5343   32.4267  -20.3793 O   0  0  0  0  0  0  0  0  0  0  0  0
  -20.8641   31.9328  -20.2237 C   0  0  0  0  0  0  0  0  0  0  0  0
  -20.4032   34.4427  -21.2919 C   0  0  0  0  0  0  0  0  0  0  0  0
  -20.2041   35.6995  -21.8259 C   0  0  0  0  0  0  0  0  0  0  0  0
  -19.1525   36.9794  -24.3795 Cl  0  0  0  0  0  0  0  0  0  0  0  0
  1  2  1  0
  2  3  1  0
  3  4  1  0
  4  5  1  0
  5  6  1  0
  6  7  1  0
  7  8  1  0
  8  9  1  0
  5 10  1  0
 10 11  2  0
 10 12  1  0
 12 13  1  0
 13 14  1  0
 14 15  1  0
 15 16  1  1
 16 17  2  0
 17 18  1  0
 18 19  2  0
 19 20  1  0
 20 21  2  0
 20 22  1  0
 22 23  1  0
 23 24  1  0
 15 25  1  0
 25 26  1  1
 26 27  2  0
 26 28  1  0
 25 29  1  0
 29 30  1  1
 30 31  2  0
 31 32  1  0
 32 33  2  0
 33 34  1  0
 34 35  1  0
 33 36  1  0
 36 37  2  0
 29 13  1  0
 37 30  1  0
 21 16  1  0
 24 19  1  0
M  END
$$$$
