
     RDKit          3D

 35 37  0  0  0  0  0  0  0  0999 V2000
  -23.6962   11.7924  -29.9455 C   0  0  0  0  0  0  0  0  0  0  0  0
  -24.5699   12.8818  -29.7357 O   0  0  0  0  0  0  0  0  0  0  0  0
  -24.6336   13.9010  -30.6770 C   0  0  0  0  0  0  0  0  0  0  0  0
  -23.9105   13.8141  -31.8392 C   0  0  0  0  0  0  0  0  0  0  0  0
  -23.9724   14.8323  -32.7817 C   0  0  0  0  0  0  0  0  0  0  0  0
  -24.7560   15.9459  -32.5751 C   0  0  0  0  0  0  0  0  0  0  0  0
  -24.7560   17.0120  -33.6089 C   0  0  0  0  0  0  0  0  0  0  0  0
  -23.4459   17.6764  -33.5767 C   0  0  0  0  0  0  0  0  0  0  0  0
  -23.1232   18.4449  -32.6110 O   0  0  0  0  0  0  0  0  0  0  0  0
  -22.4735   17.4966  -34.6198 N   0  0  0  0  0  0  0  0  0  0  0  0
  -21.3304   18.4187  -34.7415 C   0  0  0  0  0  0  0  0  0  0  0  0
  -20.1225   17.6415  -34.7499 N   0  0  0  0  0  0  0  0  0  0  0  0
  -18.9960   17.8663  -33.9222 C   0  0  0  0  0  0  0  0  0  0  0  0
  -19.0984   18.6790  -32.9459 N   0  0  0  0  0  0  0  0  0  0  0  0
  -18.2007   18.7163  -31.8990 C   0  0  0  0  0  0  0  0  0  0  0  0
  -17.4191   18.7280  -30.9880 N   0  0  0  0  0  0  0  0  0  0  0  0
  -17.7320   17.2152  -34.0669 N   0  0  0  0  0  0  0  0  0  0  0  0
  -17.2140   16.3240  -33.1422 C   0  0  0  0  0  0  0  0  0  0  0  0
  -17.9849   15.6586  -32.2282 C   0  0  0  0  0  0  0  0  0  0  0  0
  -17.4642   14.8367  -31.2373 C   0  0  0  0  0  0  0  0  0  0  0  0
  -16.0965   14.6789  -31.1658 C   0  0  0  0  0  0  0  0  0  0  0  0
  -15.2894   15.3324  -32.0680 C   0  0  0  0  0  0  0  0  0  0  0  0
  -13.9723   15.1323  -31.9561 N   0  0  0  0  0  0  0  0  0  0  0  0
  -13.0908   15.7160  -32.7970 C   0  0  0  0  0  0  0  0  0  0  0  0
  -13.6129   16.5261  -33.7739 C   0  0  0  0  0  0  0  0  0  0  0  0
  -14.9828   16.7598  -33.9231 C   0  0  0  0  0  0  0  0  0  0  0  0
  -15.8350   16.1398  -33.0386 C   0  0  0  0  0  0  0  0  0  0  0  0
  -21.4571   19.2436  -35.9688 C   0  0  0  0  0  0  0  0  0  0  0  0
  -20.0895   19.7405  -36.4511 C   0  0  0  0  0  0  0  0  0  0  0  0
  -22.0844   18.5502  -37.1188 C   0  0  0  0  0  0  0  0  0  0  0  0
  -22.2279   20.5033  -35.5716 C   0  0  0  0  0  0  0  0  0  0  0  0
  -25.4834   16.0375  -31.4121 C   0  0  0  0  0  0  0  0  0  0  0  0
  -25.4244   15.0228  -30.4643 C   0  0  0  0  0  0  0  0  0  0  0  0
  -26.1562   15.1133  -29.2905 O   0  0  0  0  0  0  0  0  0  0  0  0
  -26.6464   16.3949  -28.9011 C   0  0  0  0  0  0  0  0  0  0  0  0
  1  2  1  0
  2  3  1  0
  3  4  2  0
  4  5  1  0
  5  6  2  0
  6  7  1  0
  7  8  1  0
  8  9  2  0
  8 10  1  0
 10 11  1  0
 11 12  1  0
 12 13  1  0
 13 14  2  0
 14 15  1  0
 15 16  3  0
 13 17  1  0
 17 18  1  0
 18 19  2  0
 19 20  1  0
 20 21  2  0
 21 22  1  0
 22 23  2  0
 23 24  1  0
 24 25  2  0
 25 26  1  0
 26 27  2  0
 11 28  1  0
 28 29  1  0
 28 30  1  0
 28 31  1  0
  6 32  1  0
 32 33  2  0
 33 34  1  0
 34 35  1  0
 33  3  1  0
 27 18  1  0
 27 22  1  0
M  END
$$$$
