
     RDKit          3D

 30 33  0  0  0  0  0  0  0  0999 V2000
  -49.2967   16.9749  -46.4514 O   0  0  0  0  0  0  0  0  0  0  0  0
  -49.6687   16.0387  -45.7223 C   0  0  0  0  0  0  0  0  0  0  0  0
  -50.5592   16.3466  -44.5557 C   0  0  0  0  0  0  0  0  0  0  0  0
  -50.0471   15.6645  -43.3050 C   0  0  0  0  0  0  0  0  0  0  0  0
  -49.6616   14.2532  -43.5785 C   0  0  0  0  0  0  0  0  0  0  0  0
  -49.6631   13.3678  -42.5056 C   0  0  0  0  0  0  0  0  0  0  0  0
  -49.3176   12.0629  -42.6942 C   0  0  0  0  0  0  0  0  0  0  0  0
  -48.9496   11.5394  -43.9362 C   0  0  0  0  0  0  0  0  0  0  0  0
  -48.6161   10.2282  -44.0683 O   0  0  0  0  0  0  0  0  0  0  0  0
  -47.5379    9.4911  -43.6251 C   0  0  0  0  0  0  0  0  0  0  0  0
  -46.4506   10.2257  -42.9256 C   0  0  0  0  0  0  0  0  0  0  0  0
  -45.4906    9.3426  -42.1853 C   0  0  0  0  0  0  0  0  0  0  0  0
  -44.9837    9.9360  -40.9158 C   0  0  0  0  0  0  0  0  0  0  0  0
  -43.6037   10.2272  -40.8944 N   0  0  0  0  0  0  0  0  0  0  0  0
  -42.9159   10.0434  -39.6705 C   0  0  0  0  0  0  0  0  0  0  0  0
  -41.5695   10.7213  -39.6094 C   0  0  0  0  0  0  0  0  0  0  0  0
  -40.8483   10.5764  -40.8357 N   0  0  0  0  0  0  0  0  0  0  0  0
  -39.4262   10.4246  -40.8555 C   0  0  0  0  0  0  0  0  0  0  0  0
  -38.6769   10.4327  -39.7038 C   0  0  0  0  0  0  0  0  0  0  0  0
  -37.3080   10.2819  -39.7206 C   0  0  0  0  0  0  0  0  0  0  0  0
  -36.6893   10.1185  -40.9484 C   0  0  0  0  0  0  0  0  0  0  0  0
  -37.4306   10.1104  -42.0892 C   0  0  0  0  0  0  0  0  0  0  0  0
  -36.6264    9.9013  -43.6452 Cl  0  0  0  0  0  0  0  0  0  0  0  0
  -38.7913   10.2616  -42.0565 C   0  0  0  0  0  0  0  0  0  0  0  0
  -39.6811   10.2453  -43.5823 Cl  0  0  0  0  0  0  0  0  0  0  0  0
  -41.5118   10.5722  -42.1355 C   0  0  0  0  0  0  0  0  0  0  0  0
  -42.8751    9.9684  -42.0865 C   0  0  0  0  0  0  0  0  0  0  0  0
  -48.9599   12.4441  -44.9750 C   0  0  0  0  0  0  0  0  0  0  0  0
  -49.3078   13.7844  -44.8165 C   0  0  0  0  0  0  0  0  0  0  0  0
  -49.3062   14.6792  -45.9169 N   0  0  0  0  0  0  0  0  0  0  0  0
  1  2  2  0
  2  3  1  0
  3  4  1  0
  4  5  1  0
  5  6  2  0
  6  7  1  0
  7  8  2  0
  8  9  1  0
  9 10  1  0
 10 11  1  0
 11 12  1  0
 12 13  1  0
 13 14  1  0
 14 15  1  0
 15 16  1  0
 16 17  1  0
 17 18  1  0
 18 19  2  0
 19 20  1  0
 20 21  2  0
 21 22  1  0
 22 23  1  0
 22 24  2  0
 24 25  1  0
 17 26  1  0
 26 27  1  0
  8 28  1  0
 28 29  2  0
 29 30  1  0
 30  2  1  0
 29  5  1  0
 27 14  1  0
 24 18  1  0
M  END
$$$$
