
     RDKit          3D

 28 30  0  0  0  0  0  0  0  0999 V2000
  -21.8049   12.7487  -34.2671 C   0  0  0  0  0  0  0  0  0  0  0  0
  -21.7851   14.2157  -34.1424 C   0  0  0  0  0  0  0  0  0  0  0  0
  -20.5500   14.8512  -34.2561 C   0  0  0  0  0  0  0  0  0  0  0  0
  -20.4673   16.2184  -34.1480 C   0  0  0  0  0  0  0  0  0  0  0  0
  -19.1922   16.8773  -34.2652 N   0  0  0  0  0  0  0  0  0  0  0  0
  -18.0759   16.4317  -33.7460 N   0  0  0  0  0  0  0  0  0  0  0  0
  -17.1167   17.3411  -34.0859 C   0  0  0  0  0  0  0  0  0  0  0  0
  -15.7028   17.2571  -33.7204 C   0  0  0  0  0  0  0  0  0  0  0  0
  -15.4739   17.1284  -32.2575 C   0  0  0  0  0  0  0  0  0  0  0  0
  -15.1127   18.2483  -31.5095 C   0  0  0  0  0  0  0  0  0  0  0  0
  -14.8896   18.1777  -30.1487 C   0  0  0  0  0  0  0  0  0  0  0  0
  -14.5353   19.2717  -29.4095 F   0  0  0  0  0  0  0  0  0  0  0  0
  -15.0313   16.9574  -29.5213 C   0  0  0  0  0  0  0  0  0  0  0  0
  -15.3900   15.8120  -30.2247 C   0  0  0  0  0  0  0  0  0  0  0  0
  -15.5293   14.5222  -29.5014 C   0  0  0  0  0  0  0  0  0  0  0  0
  -14.5382   14.3602  -28.5546 F   0  0  0  0  0  0  0  0  0  0  0  0
  -15.5118   13.4653  -30.3880 F   0  0  0  0  0  0  0  0  0  0  0  0
  -16.7387   14.4980  -28.8164 F   0  0  0  0  0  0  0  0  0  0  0  0
  -15.5990   15.9403  -31.5728 C   0  0  0  0  0  0  0  0  0  0  0  0
  -17.6874   18.3097  -34.8019 N   0  0  0  0  0  0  0  0  0  0  0  0
  -18.9962   18.0155  -34.9140 C   0  0  0  0  0  0  0  0  0  0  0  0
  -20.0072   18.8329  -35.6360 C   0  0  0  0  0  0  0  0  0  0  0  0
  -21.6223   16.9482  -33.9260 C   0  0  0  0  0  0  0  0  0  0  0  0
  -22.8272   16.2926  -33.8181 C   0  0  0  0  0  0  0  0  0  0  0  0
  -22.9416   14.9106  -33.9231 C   0  0  0  0  0  0  0  0  0  0  0  0
  -24.2266   14.2846  -33.8018 C   0  0  0  0  0  0  0  0  0  0  0  0
  -24.6712   13.1459  -34.5117 N   0  0  0  0  0  0  0  0  0  0  0  0
  -25.0603   14.7992  -32.9725 O   0  0  0  0  0  0  0  0  0  0  0  0
  1  2  1  0
  2  3  2  0
  3  4  1  0
  4  5  1  0
  5  6  1  0
  6  7  2  0
  7  8  1  0
  8  9  1  0
  9 10  2  0
 10 11  1  0
 11 12  1  0
 11 13  2  0
 13 14  1  0
 14 15  1  0
 15 16  1  0
 15 17  1  0
 15 18  1  0
 14 19  2  0
  7 20  1  0
 20 21  2  0
 21 22  1  0
  4 23  2  0
 23 24  1  0
 24 25  2  0
 25 26  1  0
 26 27  1  0
 26 28  2  0
 25  2  1  0
 21  5  1  0
 19  9  1  0
M  END
$$$$
