
     RDKit          3D

 21 23  0  0  0  0  0  0  0  0999 V2000
  -19.5054   41.4606  -24.8598 C   0  0  0  0  0  0  0  0  0  0  0  0
  -18.8196   40.1753  -25.2262 C   0  0  0  0  0  0  0  0  0  0  0  0
  -19.4998   39.4836  -26.3970 C   0  0  0  0  0  0  0  0  0  0  0  0
  -17.3638   40.3936  -25.5827 C   0  0  0  0  0  0  0  0  0  0  0  0
  -18.8479   39.2921  -24.0781 N   0  0  0  0  0  0  0  0  0  0  0  0
  -19.1917   38.0279  -24.1269 N   0  0  0  0  0  0  0  0  0  0  0  0
  -19.1143   37.4722  -22.8681 C   0  0  0  0  0  0  0  0  0  0  0  0
  -19.3964   36.1040  -22.5276 C   0  0  0  0  0  0  0  0  0  0  0  0
  -20.3623   35.7701  -21.6290 C   0  0  0  0  0  0  0  0  0  0  0  0
  -20.6077   34.4314  -21.2848 C   0  0  0  0  0  0  0  0  0  0  0  0
  -19.8476   33.4505  -21.8785 C   0  0  0  0  0  0  0  0  0  0  0  0
  -20.1389   31.7549  -21.4602 Cl  0  0  0  0  0  0  0  0  0  0  0  0
  -18.8721   33.7609  -22.7849 C   0  0  0  0  0  0  0  0  0  0  0  0
  -18.6623   35.1016  -23.0965 C   0  0  0  0  0  0  0  0  0  0  0  0
  -18.6946   38.5020  -22.0564 C   0  0  0  0  0  0  0  0  0  0  0  0
  -18.4368   38.5125  -20.7051 C   0  0  0  0  0  0  0  0  0  0  0  0
  -18.5701   37.3515  -19.9037 N   0  0  0  0  0  0  0  0  0  0  0  0
  -18.0187   39.6960  -20.1711 N   0  0  0  0  0  0  0  0  0  0  0  0
  -17.8635   40.8003  -20.9234 C   0  0  0  0  0  0  0  0  0  0  0  0
  -18.1119   40.7977  -22.2465 N   0  0  0  0  0  0  0  0  0  0  0  0
  -18.5276   39.6564  -22.8292 C   0  0  0  0  0  0  0  0  0  0  0  0
  1  2  1  0
  2  3  1  0
  2  4  1  0
  2  5  1  0
  5  6  1  0
  6  7  2  0
  7  8  1  0
  8  9  2  0
  9 10  1  0
 10 11  2  0
 11 12  1  0
 11 13  1  0
 13 14  2  0
  7 15  1  0
 15 16  2  0
 16 17  1  0
 16 18  1  0
 18 19  2  0
 19 20  1  0
 20 21  2  0
 21  5  1  0
 14  8  1  0
 21 15  1  0
M  END
$$$$
