
     RDKit          3D

 22 25  0  0  0  0  0  0  0  0999 V2000
  -28.9100   19.6187  -28.8283 C   0  0  0  0  0  0  0  0  0  0  0  0
  -27.9031   20.7384  -28.8995 C   0  0  1  0  0  0  0  0  0  0  0  0
  -26.5517   20.2593  -29.3739 C   0  0  0  0  0  0  0  0  0  0  0  0
  -26.0298   21.5047  -29.8713 O   0  0  0  0  0  0  0  0  0  0  0  0
  -27.1090   22.1475  -30.4729 C   0  0  0  0  0  0  0  0  0  0  0  0
  -28.2444   21.7419  -29.9475 C   0  0  0  0  0  0  0  0  0  0  0  0
  -29.5320   22.2621  -30.4015 C   0  0  0  0  0  0  0  0  0  0  0  0
  -30.6345   21.8962  -29.9217 O   0  0  0  0  0  0  0  0  0  0  0  0
  -29.5380   23.2680  -31.4780 C   0  0  0  0  0  0  0  0  0  0  0  0
  -30.6268   23.7110  -31.8673 O   0  0  0  0  0  0  0  0  0  0  0  0
  -28.2856   23.7085  -32.0492 C   0  0  0  0  0  0  0  0  0  0  0  0
  -27.1204   23.1470  -31.5419 C   0  0  0  0  0  0  0  0  0  0  0  0
  -25.9167   23.5526  -32.0803 C   0  0  0  0  0  0  0  0  0  0  0  0
  -25.8944   24.4956  -33.0990 C   0  0  0  0  0  0  0  0  0  0  0  0
  -27.0428   25.0497  -33.5998 C   0  0  0  0  0  0  0  0  0  0  0  0
  -28.2584   24.6593  -33.0753 C   0  0  0  0  0  0  0  0  0  0  0  0
  -29.5436   25.2203  -33.5441 C   0  0  0  0  0  0  0  0  0  0  0  0
  -29.3399   26.3002  -34.5814 C   0  0  0  0  0  0  0  0  0  0  0  0
  -28.2285   25.8821  -35.5009 C   0  0  0  0  0  0  0  0  0  0  0  0
  -26.9397   26.0350  -34.6995 C   0  0  0  0  0  0  0  0  0  0  0  0
  -26.8169   27.4452  -34.2211 C   0  0  0  0  0  0  0  0  0  0  0  0
  -25.7809   25.7481  -35.6283 C   0  0  0  0  0  0  0  0  0  0  0  0
  2  1  1  6
  2  3  1  0
  3  4  1  0
  4  5  1  0
  5  6  2  0
  6  7  1  0
  7  8  2  0
  7  9  1  0
  9 10  2  0
  9 11  1  0
 11 12  2  0
 12 13  1  0
 13 14  2  0
 14 15  1  0
 15 16  2  0
 16 17  1  0
 17 18  1  0
 18 19  1  0
 19 20  1  0
 20 21  1  0
 20 22  1  0
  6  2  1  0
 16 11  1  0
 12  5  1  0
 20 15  1  0
M  END
$$$$
