
     RDKit          3D

 27 29  0  0  0  0  0  0  0  0999 V2000
  -12.9692   29.1931  -14.5318 C   0  0  0  0  0  0  0  0  0  0  0  0
  -12.9580   27.8420  -13.9555 C   0  0  0  0  0  0  0  0  0  0  0  0
  -11.8623   27.2303  -13.7584 O   0  0  0  0  0  0  0  0  0  0  0  0
  -14.1115   27.1439  -13.5899 O   0  0  0  0  0  0  0  0  0  0  0  0
  -14.0431   25.8686  -13.0494 C   0  0  0  0  0  0  0  0  0  0  0  0
  -14.9322   25.4751  -12.0739 C   0  0  0  0  0  0  0  0  0  0  0  0
  -14.8903   24.2156  -11.5176 C   0  0  0  0  0  0  0  0  0  0  0  0
  -13.9565   23.2725  -11.9028 C   0  0  0  0  0  0  0  0  0  0  0  0
  -13.8935   21.9092  -11.2937 C   0  0  0  0  0  0  0  0  0  0  0  0
  -15.1833   21.4641  -10.7232 C   0  0  0  0  0  0  0  0  0  0  0  0
  -15.4129   21.4735   -9.3418 C   0  0  0  0  0  0  0  0  0  0  0  0
  -16.6020   21.0683   -8.7781 C   0  0  0  0  0  0  0  0  0  0  0  0
  -17.6357   20.6261   -9.5938 C   0  0  0  0  0  0  0  0  0  0  0  0
  -18.8054   20.2331   -8.9570 O   0  0  0  0  0  0  0  0  0  0  0  0
  -19.2983   18.9384   -8.9924 C   0  0  0  0  0  0  0  0  0  0  0  0
  -20.6883   18.5931   -8.6034 C   0  0  0  0  0  0  0  0  0  0  0  0
  -18.4973   18.0332   -9.3798 O   0  0  0  0  0  0  0  0  0  0  0  0
  -17.4397   20.6065  -10.9402 C   0  0  0  0  0  0  0  0  0  0  0  0
  -16.2290   21.0207  -11.4923 C   0  0  0  0  0  0  0  0  0  0  0  0
  -12.7093   21.6560  -10.4822 C   0  0  0  0  0  0  0  0  0  0  0  0
  -12.0663   22.5400   -9.6544 C   0  0  0  0  0  0  0  0  0  0  0  0
  -10.9483   22.2142   -8.8994 C   0  0  0  0  0  0  0  0  0  0  0  0
  -10.4296   20.9460   -8.9599 C   0  0  0  0  0  0  0  0  0  0  0  0
  -11.0808   20.0586   -9.7959 C   0  0  0  0  0  0  0  0  0  0  0  0
  -12.1548   20.4067  -10.5081 N   0  0  0  0  0  0  0  0  0  0  0  0
  -13.0615   23.6646  -12.8823 C   0  0  0  0  0  0  0  0  0  0  0  0
  -13.1134   24.9274  -13.4316 C   0  0  0  0  0  0  0  0  0  0  0  0
  1  2  1  0
  2  3  2  0
  2  4  1  0
  4  5  1  0
  5  6  2  0
  6  7  1  0
  7  8  2  0
  8  9  1  0
  9 10  1  0
 10 11  2  0
 11 12  1  0
 12 13  2  0
 13 14  1  0
 14 15  1  0
 15 16  1  0
 15 17  2  0
 13 18  1  0
 18 19  2  0
  9 20  1  0
 20 21  2  0
 21 22  1  0
 22 23  2  0
 23 24  1  0
 24 25  2  0
  8 26  1  0
 26 27  2  0
 27  5  1  0
 19 10  1  0
 25 20  1  0
M  END
$$$$
