
     RDKit          3D

 30 33  0  0  0  0  0  0  0  0999 V2000
  -31.2771   13.6993  -29.0723 C   0  0  0  0  0  0  0  0  0  0  0  0
  -31.1356   15.1767  -29.1131 C   0  0  0  0  0  0  0  0  0  0  0  0
  -31.5382   15.7694  -30.1481 O   0  0  0  0  0  0  0  0  0  0  0  0
  -30.5804   15.9368  -28.0642 N   0  0  0  0  0  0  0  0  0  0  0  0
  -30.3436   17.3701  -28.2229 C   0  0  0  0  0  0  0  0  0  0  0  0
  -29.9319   18.3165  -27.7231 N   0  0  0  0  0  0  0  0  0  0  0  0
  -29.8550   19.5578  -28.1638 C   0  0  0  0  0  0  0  0  0  0  0  0
  -29.3499   20.7092  -27.5458 C   0  0  0  0  0  0  0  0  0  0  0  0
  -28.8098   20.6973  -26.2616 O   0  0  0  0  0  0  0  0  0  0  0  0
  -27.6967   19.9873  -25.9135 C   0  0  0  0  0  0  0  0  0  0  0  0
  -27.8134   18.8290  -25.1494 C   0  0  0  0  0  0  0  0  0  0  0  0
  -26.7073   18.0952  -24.7851 C   0  0  0  0  0  0  0  0  0  0  0  0
  -26.8168   16.8837  -23.9872 C   0  0  0  0  0  0  0  0  0  0  0  0
  -26.3201   15.6897  -24.5128 C   0  0  0  0  0  0  0  0  0  0  0  0
  -26.3958   14.5169  -23.8065 C   0  0  0  0  0  0  0  0  0  0  0  0
  -26.9622   14.4592  -22.5509 C   0  0  0  0  0  0  0  0  0  0  0  0
  -27.0331   13.1720  -21.8021 C   0  0  0  0  0  0  0  0  0  0  0  0
  -25.9906   13.1170  -20.9125 F   0  0  0  0  0  0  0  0  0  0  0  0
  -27.0169   12.1189  -22.7044 F   0  0  0  0  0  0  0  0  0  0  0  0
  -28.2518   13.0892  -21.1266 F   0  0  0  0  0  0  0  0  0  0  0  0
  -27.4579   15.6260  -22.0149 C   0  0  0  0  0  0  0  0  0  0  0  0
  -27.3759   16.8165  -22.7433 C   0  0  0  0  0  0  0  0  0  0  0  0
  -25.4891   18.5463  -25.2017 N   0  0  0  0  0  0  0  0  0  0  0  0
  -25.3696   19.6618  -25.9383 C   0  0  0  0  0  0  0  0  0  0  0  0
  -26.4659   20.3715  -26.2879 N   0  0  0  0  0  0  0  0  0  0  0  0
  -29.3682   21.9194  -28.1960 C   0  0  0  0  0  0  0  0  0  0  0  0
  -29.8567   22.1027  -29.4441 C   0  0  0  0  0  0  0  0  0  0  0  0
  -30.3693   20.9705  -30.0894 C   0  0  0  0  0  0  0  0  0  0  0  0
  -30.3474   19.7538  -29.4272 C   0  0  0  0  0  0  0  0  0  0  0  0
  -30.8920   18.1041  -29.8887 S   0  0  0  0  0  0  0  0  0  0  0  0
  1  2  1  0
  2  3  2  0
  2  4  1  0
  4  5  1  0
  5  6  2  0
  6  7  1  0
  7  8  2  0
  8  9  1  0
  9 10  1  0
 10 11  2  0
 11 12  1  0
 12 13  1  0
 13 14  2  0
 14 15  1  0
 15 16  2  0
 16 17  1  0
 17 18  1  0
 17 19  1  0
 17 20  1  0
 16 21  1  0
 21 22  2  0
 12 23  2  0
 23 24  1  0
 24 25  2  0
  8 26  1  0
 26 27  2  0
 27 28  1  0
 28 29  2  0
 29 30  1  0
 30  5  1  0
 29  7  1  0
 25 10  1  0
 22 13  1  0
M  END
$$$$
