
     RDKit          3D

 25 28  0  0  0  0  0  0  0  0999 V2000
  -28.7304   26.3393  -35.3936 O   0  0  0  0  0  0  0  0  0  0  0  0
  -28.8259   27.1973  -36.2997 C   0  0  0  0  0  0  0  0  0  0  0  0
  -29.7156   26.8627  -37.2404 O   0  0  0  0  0  0  0  0  0  0  0  0
  -29.9962   27.5777  -38.2836 C   0  0  0  0  0  0  0  0  0  0  0  0
  -30.9276   27.1833  -39.2270 C   0  0  0  0  0  0  0  0  0  0  0  0
  -31.2036   27.9489  -40.3106 C   0  0  0  0  0  0  0  0  0  0  0  0
  -30.5326   29.1489  -40.4651 C   0  0  0  0  0  0  0  0  0  0  0  0
  -29.6061   29.5355  -39.5208 C   0  0  0  0  0  0  0  0  0  0  0  0
  -29.3046   28.7717  -38.4037 C   0  0  0  0  0  0  0  0  0  0  0  0
  -28.3746   29.1587  -37.4539 C   0  0  0  0  0  0  0  0  0  0  0  0
  -27.7514   30.3619  -37.6830 O   0  0  0  0  0  0  0  0  0  0  0  0
  -28.1048   28.3501  -36.3378 C   0  0  0  0  0  0  0  0  0  0  0  0
  -27.1161   28.7873  -35.3517 C   0  0  0  0  0  0  0  0  0  0  0  0
  -26.0151   27.8804  -35.0231 C   0  0  0  0  0  0  0  0  0  0  0  0
  -25.9684   27.0138  -33.9653 C   0  0  0  0  0  0  0  0  0  0  0  0
  -27.0135   26.8388  -33.0708 O   0  0  0  0  0  0  0  0  0  0  0  0
  -24.8223   26.2378  -33.7424 C   0  0  0  0  0  0  0  0  0  0  0  0
  -24.7828   25.3666  -32.6727 C   0  0  0  0  0  0  0  0  0  0  0  0
  -23.6530   24.5936  -32.4429 C   0  0  0  0  0  0  0  0  0  0  0  0
  -22.5709   24.6974  -33.2850 C   0  0  0  0  0  0  0  0  0  0  0  0
  -22.5697   25.5531  -34.3622 C   0  0  0  0  0  0  0  0  0  0  0  0
  -23.7201   26.3123  -34.5614 C   0  0  0  0  0  0  0  0  0  0  0  0
  -23.8084   27.1517  -35.5610 O   0  0  0  0  0  0  0  0  0  0  0  0
  -24.8570   27.8985  -35.8107 C   0  0  0  0  0  0  0  0  0  0  0  0
  -24.7443   28.6384  -36.8205 O   0  0  0  0  0  0  0  0  0  0  0  0
  1  2  2  0
  2  3  1  0
  3  4  1  0
  4  5  2  0
  5  6  1  0
  6  7  2  0
  7  8  1  0
  8  9  2  0
  9 10  1  0
 10 11  1  0
 10 12  2  0
 12 13  1  0
 13 14  1  0
 14 15  2  0
 15 16  1  0
 15 17  1  0
 17 18  2  0
 18 19  1  0
 19 20  2  0
 20 21  1  0
 21 22  2  0
 22 23  1  0
 23 24  1  0
 24 25  2  0
 12  2  1  0
 24 14  1  0
  9  4  1  0
 22 17  1  0
M  END
$$$$
