
     RDKit          3D

 19 21  0  0  0  0  0  0  0  0999 V2000
  -14.7423   46.0924  -20.1555 O   0  0  0  0  0  0  0  0  0  0  0  0
  -15.3635   45.0484  -20.8494 C   0  0  0  0  0  0  0  0  0  0  0  0
  -16.1458   45.3180  -21.9247 C   0  0  0  0  0  0  0  0  0  0  0  0
  -16.7599   44.2576  -22.6071 C   0  0  0  0  0  0  0  0  0  0  0  0
  -16.5852   42.9577  -22.2094 C   0  0  0  0  0  0  0  0  0  0  0  0
  -17.2081   41.9178  -22.9062 N   0  0  0  0  0  0  0  0  0  0  0  0
  -17.6637   40.7005  -22.1957 C   0  0  0  0  0  0  0  0  0  0  0  0
  -17.9375   39.6162  -22.2860 N   0  0  0  0  0  0  0  0  0  0  0  0
  -18.3420   38.6967  -21.4186 C   0  0  0  0  0  0  0  0  0  0  0  0
  -18.6588   37.2760  -21.7672 C   0  0  0  0  0  0  0  0  0  0  0  0
  -19.4261   36.4754  -20.9602 C   0  0  0  0  0  0  0  0  0  0  0  0
  -19.7257   35.1661  -21.2683 C   0  0  0  0  0  0  0  0  0  0  0  0
  -19.2281   34.6523  -22.4378 C   0  0  0  0  0  0  0  0  0  0  0  0
  -18.4562   35.4726  -23.2403 C   0  0  0  0  0  0  0  0  0  0  0  0
  -18.1856   36.7492  -22.9030 N   0  0  0  0  0  0  0  0  0  0  0  0
  -18.4419   39.1783  -20.1643 C   0  0  0  0  0  0  0  0  0  0  0  0
  -17.9438   40.9390  -20.3108 S   0  0  0  0  0  0  0  0  0  0  0  0
  -15.7791   42.7247  -21.1071 C   0  0  0  0  0  0  0  0  0  0  0  0
  -15.1672   43.7565  -20.4241 C   0  0  0  0  0  0  0  0  0  0  0  0
  1  2  1  0
  2  3  2  0
  3  4  1  0
  4  5  2  0
  5  6  1  0
  6  7  1  0
  7  8  2  0
  8  9  1  0
  9 10  1  0
 10 11  2  0
 11 12  1  0
 12 13  2  0
 13 14  1  0
 14 15  2  0
  9 16  2  0
 16 17  1  0
  5 18  1  0
 18 19  2  0
 19  2  1  0
 17  7  1  0
 15 10  1  0
M  END
$$$$
