
     RDKit          3D

 19 19  0  0  0  0  0  0  0  0999 V2000
  -18.9800   17.3416  -35.1843 C   0  0  0  0  0  0  0  0  0  0  0  0
  -18.5552   16.6716  -33.9355 C   0  0  0  0  0  0  0  0  0  0  0  0
  -19.2675   15.5352  -33.5508 C   0  0  0  0  0  0  0  0  0  0  0  0
  -18.9568   14.8466  -32.4108 C   0  0  0  0  0  0  0  0  0  0  0  0
  -19.7526   13.6497  -32.0642 C   0  0  0  0  0  0  0  0  0  0  0  0
  -20.9376   14.0614  -31.2179 C   0  0  0  0  0  0  0  0  0  0  0  0
  -20.2067   12.9773  -33.3371 C   0  0  0  0  0  0  0  0  0  0  0  0
  -18.9515   12.6625  -31.2417 C   0  0  0  0  0  0  0  0  0  0  0  0
  -17.9096   15.2979  -31.6302 C   0  0  0  0  0  0  0  0  0  0  0  0
  -17.2015   16.4204  -32.0050 C   0  0  0  0  0  0  0  0  0  0  0  0
  -16.0767   16.9028  -31.1637 C   0  0  0  0  0  0  0  0  0  0  0  0
  -17.5093   17.1202  -33.1535 C   0  0  0  0  0  0  0  0  0  0  0  0
  -16.7570   18.3148  -33.5600 C   0  0  0  0  0  0  0  0  0  0  0  0
  -15.7934   17.9956  -34.6905 C   0  0  0  0  0  0  0  0  0  0  0  0
  -15.6340   16.8415  -35.2292 N   0  0  0  0  0  0  0  0  0  0  0  0
  -14.6474   16.8440  -36.2812 C   0  0  0  0  0  0  0  0  0  0  0  0
  -14.0267   18.2136  -36.2168 C   0  0  0  0  0  0  0  0  0  0  0  0
  -14.9227   18.9067  -35.3274 N   0  0  0  0  0  0  0  0  0  0  0  0
  -17.2465   16.3089  -33.7062 Cl  0  0  0  0  0  0  0  0  0  0  0  0
  1  2  1  0
  2  3  2  0
  3  4  1  0
  4  5  1  0
  5  6  1  0
  5  7  1  0
  5  8  1  0
  4  9  2  0
  9 10  1  0
 10 11  1  0
 10 12  2  0
 12 13  1  0
 13 14  1  0
 14 15  2  0
 15 16  1  0
 16 17  1  0
 17 18  1  0
 12  2  1  0
 18 14  1  0
M  END
$$$$
