
     RDKit          3D

 23 26  0  0  0  0  0  0  0  0999 V2000
  -20.7324   40.3632  -28.0028 C   0  0  0  0  0  0  0  0  0  0  0  0
  -21.1252   39.1103  -27.2403 C   0  0  0  0  0  0  0  0  0  0  0  0
  -22.6160   39.0338  -27.0609 C   0  0  0  0  0  0  0  0  0  0  0  0
  -20.6183   37.8882  -27.9785 C   0  0  0  0  0  0  0  0  0  0  0  0
  -20.4607   39.1586  -25.9124 C   0  0  0  0  0  0  0  0  0  0  0  0
  -20.2003   38.1271  -25.0611 N   0  0  0  0  0  0  0  0  0  0  0  0
  -19.5884   38.5843  -23.9686 C   0  0  0  0  0  0  0  0  0  0  0  0
  -19.1062   38.0054  -22.8116 C   0  0  0  0  0  0  0  0  0  0  0  0
  -19.2402   36.6446  -22.6537 C   0  0  0  0  0  0  0  0  0  0  0  0
  -18.7660   36.0485  -21.5076 C   0  0  0  0  0  0  0  0  0  0  0  0
  -18.1759   36.7552  -20.5377 N   0  0  0  0  0  0  0  0  0  0  0  0
  -18.0251   38.1128  -20.6607 C   0  0  0  0  0  0  0  0  0  0  0  0
  -17.4685   38.7078  -19.7233 O   0  0  0  0  0  0  0  0  0  0  0  0
  -18.4848   38.7395  -21.7872 C   0  0  0  0  0  0  0  0  0  0  0  0
  -18.3507   40.1069  -21.9471 C   0  0  0  0  0  0  0  0  0  0  0  0
  -17.7586   40.8854  -20.9958 C   0  0  0  0  0  0  0  0  0  0  0  0
  -17.6646   42.2641  -21.2403 C   0  0  0  0  0  0  0  0  0  0  0  0
  -17.0740   42.9972  -20.2777 F   0  0  0  0  0  0  0  0  0  0  0  0
  -18.1444   42.8277  -22.3875 C   0  0  0  0  0  0  0  0  0  0  0  0
  -18.7420   42.0290  -23.3436 C   0  0  0  0  0  0  0  0  0  0  0  0
  -18.8476   40.6634  -23.1267 C   0  0  0  0  0  0  0  0  0  0  0  0
  -19.4556   39.9390  -24.1272 C   0  0  0  0  0  0  0  0  0  0  0  0
  -19.9960   40.2844  -25.3281 N   0  0  0  0  0  0  0  0  0  0  0  0
  1  2  1  0
  2  3  1  0
  2  4  1  0
  2  5  1  0
  5  6  2  0
  6  7  1  0
  7  8  2  0
  8  9  1  0
  9 10  2  0
 10 11  1  0
 11 12  1  0
 12 13  2  0
 12 14  1  0
 14 15  2  0
 15 16  1  0
 16 17  2  0
 17 18  1  0
 17 19  1  0
 19 20  2  0
 20 21  1  0
 21 22  2  0
 22 23  1  0
 23  5  1  0
 22  7  1  0
 14  8  1  0
 21 15  1  0
M  END
$$$$
