
     RDKit          3D

 20 23  0  0  0  0  0  0  0  0999 V2000
  -12.0174   13.3078  -29.9803 C   0  0  0  0  0  0  0  0  0  0  0  0
  -13.2776   13.8652  -30.5583 C   0  0  0  0  0  0  0  0  0  0  0  0
  -13.3968   15.0189  -31.1484 O   0  0  0  0  0  0  0  0  0  0  0  0
  -14.6437   15.2345  -31.5568 C   0  0  0  0  0  0  0  0  0  0  0  0
  -15.2120   16.2986  -32.2128 C   0  0  0  0  0  0  0  0  0  0  0  0
  -16.5766   16.2107  -32.5023 C   0  0  0  0  0  0  0  0  0  0  0  0
  -17.1825   17.1886  -33.1254 O   0  0  0  0  0  0  0  0  0  0  0  0
  -18.4326   17.2003  -33.4355 C   0  0  0  0  0  0  0  0  0  0  0  0
  -19.0056   18.1554  -34.0395 O   0  0  0  0  0  0  0  0  0  0  0  0
  -19.2280   16.1283  -33.1078 C   0  0  0  0  0  0  0  0  0  0  0  0
  -20.5688   16.0963  -33.4187 C   0  0  0  0  0  0  0  0  0  0  0  0
  -21.3501   15.0149  -33.0831 C   0  0  0  0  0  0  0  0  0  0  0  0
  -20.7692   13.9516  -32.4245 C   0  0  0  0  0  0  0  0  0  0  0  0
  -19.4011   13.9554  -32.0932 C   0  0  0  0  0  0  0  0  0  0  0  0
  -18.6809   15.0468  -32.4486 C   0  0  0  0  0  0  0  0  0  0  0  0
  -17.3355   15.0876  -32.1409 C   0  0  0  0  0  0  0  0  0  0  0  0
  -16.7109   14.0554  -31.4868 C   0  0  0  0  0  0  0  0  0  0  0  0
  -15.3613   14.1176  -31.1884 C   0  0  0  0  0  0  0  0  0  0  0  0
  -14.5007   13.2410  -30.5525 C   0  0  0  0  0  0  0  0  0  0  0  0
  -14.8886   11.9285  -30.0087 C   0  0  0  0  0  0  0  0  0  0  0  0
  1  2  1  0
  2  3  1  0
  3  4  1  0
  4  5  2  0
  5  6  1  0
  6  7  1  0
  7  8  1  0
  8  9  2  0
  8 10  1  0
 10 11  2  0
 11 12  1  0
 12 13  2  0
 13 14  1  0
 14 15  2  0
 15 16  1  0
 16 17  1  0
 17 18  2  0
 18 19  1  0
 19 20  1  0
 19  2  2  0
 18  4  1  0
 16  6  2  0
 15 10  1  0
M  END
$$$$
