
     RDKit          3D

 16 17  0  0  0  0  0  0  0  0999 V2000
  -16.8290   35.1581  -23.4315 C   0  0  0  0  0  0  0  0  0  0  0  0
  -18.0658   34.9582  -22.6471 C   0  0  0  0  0  0  0  0  0  0  0  0
  -18.5211   33.6930  -22.4194 N   0  0  0  0  0  0  0  0  0  0  0  0
  -19.6503   33.4883  -21.7192 C   0  0  0  0  0  0  0  0  0  0  0  0
  -20.0997   32.3352  -21.4900 O   0  0  0  0  0  0  0  0  0  0  0  0
  -20.3789   34.5456  -21.2126 C   0  0  0  0  0  0  0  0  0  0  0  0
  -21.5830   34.3754  -20.4640 C   0  0  0  0  0  0  0  0  0  0  0  0
  -22.5672   34.2256  -19.8415 N   0  0  0  0  0  0  0  0  0  0  0  0
  -19.9299   35.8288  -21.4353 C   0  0  0  0  0  0  0  0  0  0  0  0
  -18.7506   36.0318  -22.1667 C   0  0  0  0  0  0  0  0  0  0  0  0
  -18.2687   37.3754  -22.3913 C   0  0  0  0  0  0  0  0  0  0  0  0
  -18.9694   38.1752  -23.2969 C   0  0  0  0  0  0  0  0  0  0  0  0
  -18.6181   39.4741  -23.5834 C   0  0  0  0  0  0  0  0  0  0  0  0
  -17.5468   40.0061  -22.9631 N   0  0  0  0  0  0  0  0  0  0  0  0
  -16.8491   39.2576  -22.0820 C   0  0  0  0  0  0  0  0  0  0  0  0
  -17.1953   37.9436  -21.7848 C   0  0  0  0  0  0  0  0  0  0  0  0
  1  2  1  0
  2  3  1  0
  3  4  1  0
  4  5  2  0
  4  6  1  0
  6  7  1  0
  7  8  3  0
  6  9  2  0
  9 10  1  0
 10 11  1  0
 11 12  2  0
 12 13  1  0
 13 14  2  0
 14 15  1  0
 15 16  2  0
 10  2  2  0
 16 11  1  0
M  END
$$$$
