
     RDKit          3D

 28 30  0  0  0  0  0  0  0  0999 V2000
  -22.5150   20.1580  -34.0794 O   0  0  0  0  0  0  0  0  0  0  0  0
  -21.3792   20.1115  -34.5972 C   0  0  0  0  0  0  0  0  0  0  0  0
  -20.1247   20.1283  -33.8706 C   0  0  0  0  0  0  0  0  0  0  0  0
  -19.9018   21.3321  -32.9643 C   0  0  0  0  0  0  0  0  0  0  0  0
  -18.4898   21.4453  -32.5311 C   0  0  0  0  0  0  0  0  0  0  0  0
  -17.9098   20.1545  -31.4418 S   0  0  0  0  0  0  0  0  0  0  0  0
  -17.4100   18.7251  -32.3440 C   0  0  0  0  0  0  0  0  0  0  0  0
  -18.0849   17.5550  -32.4590 C   0  0  0  0  0  0  0  0  0  0  0  0
  -17.6508   16.4676  -33.1942 C   0  0  0  0  0  0  0  0  0  0  0  0
  -16.4461   16.5835  -33.8559 C   0  0  0  0  0  0  0  0  0  0  0  0
  -15.7134   17.7517  -33.7753 C   0  0  0  0  0  0  0  0  0  0  0  0
  -16.1923   18.8064  -33.0282 C   0  0  0  0  0  0  0  0  0  0  0  0
  -20.8768   21.3007  -31.8704 C   0  0  0  0  0  0  0  0  0  0  0  0
  -20.4976   21.6794  -30.7193 O   0  0  0  0  0  0  0  0  0  0  0  0
  -22.1951   20.8895  -31.9782 O   0  0  0  0  0  0  0  0  0  0  0  0
  -21.3215   20.0342  -36.0561 C   0  0  0  0  0  0  0  0  0  0  0  0
  -22.0899   19.1268  -36.7537 C   0  0  0  0  0  0  0  0  0  0  0  0
  -22.0326   19.0590  -38.1307 C   0  0  0  0  0  0  0  0  0  0  0  0
  -21.2170   19.8809  -38.8796 C   0  0  0  0  0  0  0  0  0  0  0  0
  -21.1453   19.8208  -40.3344 C   0  0  0  0  0  0  0  0  0  0  0  0
  -22.2238   20.1545  -41.1261 C   0  0  0  0  0  0  0  0  0  0  0  0
  -22.1375   20.0931  -42.5119 C   0  0  0  0  0  0  0  0  0  0  0  0
  -20.9796   19.6994  -43.1514 C   0  0  0  0  0  0  0  0  0  0  0  0
  -20.8822   19.6255  -44.9084 Cl  0  0  0  0  0  0  0  0  0  0  0  0
  -19.9025   19.3661  -42.3582 C   0  0  0  0  0  0  0  0  0  0  0  0
  -19.9882   19.4270  -40.9835 C   0  0  0  0  0  0  0  0  0  0  0  0
  -20.4466   20.7917  -38.1687 C   0  0  0  0  0  0  0  0  0  0  0  0
  -20.5018   20.8616  -36.7925 C   0  0  0  0  0  0  0  0  0  0  0  0
  1  2  2  0
  2  3  1  0
  3  4  1  0
  4  5  1  0
  5  6  1  0
  6  7  1  0
  7  8  2  0
  8  9  1  0
  9 10  2  0
 10 11  1  0
 11 12  2  0
  4 13  1  0
 13 14  2  0
 13 15  1  0
  2 16  1  0
 16 17  2  0
 17 18  1  0
 18 19  2  0
 19 20  1  0
 20 21  2  0
 21 22  1  0
 22 23  2  0
 23 24  1  0
 23 25  1  0
 25 26  2  0
 19 27  1  0
 27 28  2  0
 12  7  1  0
 28 16  1  0
 26 20  1  0
M  END
$$$$
