
     RDKit          3D

 42 43  0  0  0  0  0  0  0  0999 V2000
  -19.9432   15.0052  -35.6892 C   0  0  0  0  0  0  0  0  0  0  0  0
  -21.0384   15.9335  -36.0598 C   0  0  0  0  0  0  0  0  0  0  0  0
  -22.3362   15.3838  -35.4462 C   0  0  0  0  0  0  0  0  0  0  0  0
  -20.8509   17.3735  -35.7240 C   0  0  1  0  0  0  0  0  0  0  0  0
  -20.7065   17.6035  -34.2319 C   0  0  0  0  0  0  0  0  0  0  0  0
  -20.4887   16.5621  -33.5730 O   0  0  0  0  0  0  0  0  0  0  0  0
  -20.8135   18.8940  -33.6659 N   0  0  0  0  0  0  0  0  0  0  0  0
  -21.0953   20.1004  -34.3944 C   0  0  1  0  0  0  0  0  0  0  0  0
  -22.2743   20.8655  -33.8923 C   0  0  0  0  0  0  0  0  0  0  0  0
  -22.3413   21.1931  -32.4561 C   0  0  0  0  0  0  0  0  0  0  0  0
  -23.5594   20.7437  -31.7154 C   0  0  0  0  0  0  0  0  0  0  0  0
  -23.4679   20.9950  -30.2937 N   0  0  0  0  0  0  0  0  0  0  0  0
  -24.4789   20.5428  -29.4207 C   0  0  0  0  0  0  0  0  0  0  0  0
  -24.1098   20.1799  -28.2205 N   0  0  0  0  0  0  0  0  0  0  0  0
  -25.8559   20.4716  -29.8052 N   0  0  0  0  0  0  0  0  0  0  0  0
  -19.9419   21.0056  -34.5578 C   0  0  0  0  0  0  0  0  0  0  0  0
  -18.8123   20.5881  -34.1589 O   0  0  0  0  0  0  0  0  0  0  0  0
  -19.9982   22.2912  -35.1218 N   0  0  0  0  0  0  0  0  0  0  0  0
  -20.7752   22.5889  -36.3352 C   0  0  0  0  0  0  0  0  0  0  0  0
  -19.9472   23.2226  -37.3819 C   0  0  0  0  0  0  0  0  0  0  0  0
  -19.4434   24.3598  -37.0896 O   0  0  0  0  0  0  0  0  0  0  0  0
  -19.6588   22.7089  -38.6544 N   0  0  0  0  0  0  0  0  0  0  0  0
  -20.4857   21.7245  -39.3607 C   0  0  1  0  0  0  0  0  0  0  0  0
  -21.0196   22.4788  -40.5774 C   0  0  0  0  0  0  0  0  0  0  0  0
  -19.9837   23.0049  -41.4545 C   0  0  0  0  0  0  0  0  0  0  0  0
  -20.2864   23.3876  -42.6005 O   0  0  0  0  0  0  0  0  0  0  0  0
  -18.6729   23.0860  -41.0353 O   0  0  0  0  0  0  0  0  0  0  0  0
  -19.6823   20.6117  -39.9180 C   0  0  0  0  0  0  0  0  0  0  0  0
  -18.5359   20.9730  -40.3735 O   0  0  0  0  0  0  0  0  0  0  0  0
  -20.0138   19.2568  -40.0065 N   0  0  0  0  0  0  0  0  0  0  0  0
  -20.4264   18.3571  -38.9360 C   0  0  2  0  0  0  0  0  0  0  0  0
  -21.9384   18.3391  -38.9742 C   0  0  0  0  0  0  0  0  0  0  0  0
  -22.4605   19.6203  -39.5755 C   0  0  0  0  0  0  0  0  0  0  0  0
  -22.4672   19.8925  -40.9156 C   0  0  0  0  0  0  0  0  0  0  0  0
  -22.9553   21.0749  -41.4446 C   0  0  0  0  0  0  0  0  0  0  0  0
  -23.4600   22.0274  -40.5842 C   0  0  0  0  0  0  0  0  0  0  0  0
  -23.4692   21.7884  -39.2322 C   0  0  0  0  0  0  0  0  0  0  0  0
  -22.9684   20.5827  -38.7284 C   0  0  0  0  0  0  0  0  0  0  0  0
  -19.8226   18.6906  -37.6515 C   0  0  0  0  0  0  0  0  0  0  0  0
  -19.2308   19.8401  -37.6002 O   0  0  0  0  0  0  0  0  0  0  0  0
  -19.7645   17.9759  -36.4432 N   0  0  0  0  0  0  0  0  0  0  0  0
  -18.4393   17.7905  -35.7681 C   0  0  0  0  0  0  0  0  0  0  0  0
  1  2  1  0
  2  3  1  0
  4  2  1  1
  4  5  1  0
  5  6  2  0
  5  7  1  0
  7  8  1  0
  8  9  1  1
  9 10  1  0
 10 11  1  0
 11 12  1  0
 12 13  1  0
 13 14  2  0
 13 15  1  0
  8 16  1  0
 16 17  2  0
 16 18  1  0
 18 19  1  0
 19 20  1  0
 20 21  2  0
 20 22  1  0
 22 23  1  0
 23 24  1  6
 24 25  1  0
 25 26  2  0
 25 27  1  0
 23 28  1  0
 28 29  2  0
 28 30  1  0
 30 31  1  0
 31 32  1  1
 32 33  1  0
 33 34  2  0
 34 35  1  0
 35 36  2  0
 36 37  1  0
 37 38  2  0
 31 39  1  0
 39 40  2  0
 39 41  1  0
 41 42  1  0
 41  4  1  0
 38 33  1  0
M  END
$$$$
