
     RDKit          3D

 33 36  0  0  0  0  0  0  0  0999 V2000
  -24.4001   38.1484  -30.6635 C   0  0  0  0  0  0  0  0  0  0  0  0
  -24.3802   39.5564  -30.2867 N   0  0  0  0  0  0  0  0  0  0  0  0
  -23.0189   40.0215  -30.3556 C   0  0  0  0  0  0  0  0  0  0  0  0
  -22.3558   39.7059  -29.0702 C   0  0  0  0  0  0  0  0  0  0  0  0
  -22.0104   38.4272  -28.6870 C   0  0  0  0  0  0  0  0  0  0  0  0
  -21.3842   38.1936  -27.4569 C   0  0  0  0  0  0  0  0  0  0  0  0
  -21.0959   39.2295  -26.5969 C   0  0  0  0  0  0  0  0  0  0  0  0
  -20.4456   39.0042  -25.3151 C   0  0  0  0  0  0  0  0  0  0  0  0
  -20.3923   39.8971  -24.2341 C   0  0  0  0  0  0  0  0  0  0  0  0
  -19.6914   39.3083  -23.2230 C   0  0  0  0  0  0  0  0  0  0  0  0
  -19.3396   39.7792  -21.8948 C   0  0  0  0  0  0  0  0  0  0  0  0
  -18.1846   40.4741  -21.7022 N   0  0  0  0  0  0  0  0  0  0  0  0
  -17.7976   40.9374  -20.5081 C   0  0  0  0  0  0  0  0  0  0  0  0
  -16.5316   41.6690  -20.4441 C   0  0  0  0  0  0  0  0  0  0  0  0
  -16.3733   42.8501  -19.7577 C   0  0  0  0  0  0  0  0  0  0  0  0
  -15.1584   43.5289  -19.7107 C   0  0  0  0  0  0  0  0  0  0  0  0
  -14.0611   43.0222  -20.3656 C   0  0  0  0  0  0  0  0  0  0  0  0
  -12.5676   43.8931  -20.2852 S   0  0  0  0  0  6  0  0  0  0  0  0
  -12.0717   43.9139  -18.8695 O   0  0  0  0  0  0  0  0  0  0  0  0
  -11.5547   43.1927  -21.1577 O   0  0  0  0  0  0  0  0  0  0  0  0
  -12.7149   45.5508  -20.8766 C   0  0  0  0  0  0  0  0  0  0  0  0
  -11.3822   46.1490  -21.2070 C   0  0  0  0  0  0  0  0  0  0  0  0
  -13.6982   45.6582  -22.0215 C   0  0  0  0  0  0  0  0  0  0  0  0
  -14.2092   41.8405  -21.0556 C   0  0  0  0  0  0  0  0  0  0  0  0
  -15.4080   41.1862  -21.0923 C   0  0  0  0  0  0  0  0  0  0  0  0
  -18.5818   40.7199  -19.3924 C   0  0  0  0  0  0  0  0  0  0  0  0
  -19.7226   40.0352  -19.5749 N   0  0  0  0  0  0  0  0  0  0  0  0
  -20.1097   39.5678  -20.7886 C   0  0  0  0  0  0  0  0  0  0  0  0
  -21.3375   38.8469  -20.9066 N   0  0  0  0  0  0  0  0  0  0  0  0
  -19.3414   38.1147  -23.6817 O   0  0  0  0  0  0  0  0  0  0  0  0
  -19.7700   37.9269  -24.8865 N   0  0  0  0  0  0  0  0  0  0  0  0
  -21.4434   40.5039  -26.9855 C   0  0  0  0  0  0  0  0  0  0  0  0
  -22.0638   40.7375  -28.2037 C   0  0  0  0  0  0  0  0  0  0  0  0
  1  2  1  0
  2  3  1  0
  3  4  1  0
  4  5  2  0
  5  6  1  0
  6  7  2  0
  7  8  1  0
  8  9  1  0
  9 10  2  0
 10 11  1  0
 11 12  2  0
 12 13  1  0
 13 14  1  0
 14 15  2  0
 15 16  1  0
 16 17  2  0
 17 18  1  0
 18 19  2  0
 18 20  2  0
 18 21  1  0
 21 22  1  0
 21 23  1  0
 17 24  1  0
 24 25  2  0
 13 26  2  0
 26 27  1  0
 27 28  2  0
 28 29  1  0
 10 30  1  0
 30 31  1  0
  7 32  1  0
 32 33  2  0
 33  4  1  0
 31  8  2  0
 28 11  1  0
 25 14  1  0
M  END
$$$$
