
     RDKit          3D

 36 39  0  0  0  0  0  0  0  0999 V2000
  -21.1783   19.1199  -37.8133 C   0  0  0  0  0  0  0  0  0  0  0  0
  -19.7882   19.0177  -38.3841 C   0  0  0  0  0  0  0  0  0  0  0  0
  -18.8792   18.3098  -37.6018 O   0  0  0  0  0  0  0  0  0  0  0  0
  -17.5481   18.1738  -37.9363 C   0  0  0  0  0  0  0  0  0  0  0  0
  -17.0928   18.5335  -39.2026 C   0  0  0  0  0  0  0  0  0  0  0  0
  -15.7763   18.3814  -39.4873 C   0  0  0  0  0  0  0  0  0  0  0  0
  -14.8780   17.9018  -38.6182 N   0  0  0  0  0  0  0  0  0  0  0  0
  -13.4924   17.7583  -38.9648 C   0  0  0  0  0  0  0  0  0  0  0  0
  -12.9995   16.5862  -39.5003 C   0  0  0  0  0  0  0  0  0  0  0  0
  -11.6552   16.4580  -39.8325 C   0  0  0  0  0  0  0  0  0  0  0  0
  -10.7710   17.4968  -39.6382 C   0  0  0  0  0  0  0  0  0  0  0  0
   -9.4540   17.3588  -39.9682 F   0  0  0  0  0  0  0  0  0  0  0  0
  -11.2648   18.6686  -39.1026 C   0  0  0  0  0  0  0  0  0  0  0  0
  -12.6010   18.7908  -38.7743 C   0  0  0  0  0  0  0  0  0  0  0  0
  -15.3136   17.5594  -37.4131 C   0  0  0  0  0  0  0  0  0  0  0  0
  -14.4821   17.1053  -36.5809 O   0  0  0  0  0  0  0  0  0  0  0  0
  -16.6570   17.6758  -37.0124 C   0  0  0  0  0  0  0  0  0  0  0  0
  -17.0319   17.2748  -35.6727 C   0  0  0  0  0  0  0  0  0  0  0  0
  -17.6254   18.1648  -34.9484 O   0  0  0  0  0  0  0  0  0  0  0  0
  -16.8438   16.0493  -35.0383 N   0  0  0  0  0  0  0  0  0  0  0  0
  -17.1026   15.8378  -33.6435 C   0  0  0  0  0  0  0  0  0  0  0  0
  -16.2287   15.0372  -32.9494 C   0  0  0  0  0  0  0  0  0  0  0  0
  -16.4165   14.7885  -31.5974 C   0  0  0  0  0  0  0  0  0  0  0  0
  -17.4844   15.3434  -30.9343 C   0  0  0  0  0  0  0  0  0  0  0  0
  -17.6211   15.0575  -29.5759 O   0  0  0  0  0  0  0  0  0  0  0  0
  -16.7130   14.3441  -28.8414 C   0  0  0  0  0  0  0  0  0  0  0  0
  -16.6371   12.9569  -28.9368 C   0  0  0  0  0  0  0  0  0  0  0  0
  -15.7042   12.2809  -28.1754 C   0  0  0  0  0  0  0  0  0  0  0  0
  -14.8794   12.9691  -27.3504 N   0  0  0  0  0  0  0  0  0  0  0  0
  -14.9184   14.3005  -27.2283 C   0  0  0  0  0  0  0  0  0  0  0  0
  -14.0183   14.9645  -26.3382 N   0  0  0  0  0  0  0  0  0  0  0  0
  -15.8506   14.9967  -27.9866 C   0  0  0  0  0  0  0  0  0  0  0  0
  -15.8674   16.7490  -27.7948 Cl  0  0  0  0  0  0  0  0  0  0  0  0
  -18.3584   16.1403  -31.6148 C   0  0  0  0  0  0  0  0  0  0  0  0
  -19.4134   16.6872  -30.9552 F   0  0  0  0  0  0  0  0  0  0  0  0
  -18.1555   16.3749  -32.9542 C   0  0  0  0  0  0  0  0  0  0  0  0
  1  2  1  0
  2  3  1  0
  3  4  1  0
  4  5  1  0
  5  6  2  0
  6  7  1  0
  7  8  1  0
  8  9  2  0
  9 10  1  0
 10 11  2  0
 11 12  1  0
 11 13  1  0
 13 14  2  0
  7 15  1  0
 15 16  2  0
 15 17  1  0
 17 18  1  0
 18 19  2  0
 18 20  1  0
 20 21  1  0
 21 22  2  0
 22 23  1  0
 23 24  2  0
 24 25  1  0
 25 26  1  0
 26 27  2  0
 27 28  1  0
 28 29  2  0
 29 30  1  0
 30 31  1  0
 30 32  2  0
 32 33  1  0
 24 34  1  0
 34 35  1  0
 34 36  2  0
 17  4  2  0
 36 21  1  0
 14  8  1  0
 32 26  1  0
M  END
$$$$
