
     RDKit          3D

 25 28  0  0  0  0  0  0  0  0999 V2000
  -13.5153   43.9966  -20.3566 C   0  0  0  0  0  0  0  0  0  0  0  0
  -14.8193   43.3055  -20.6575 C   0  0  0  0  0  0  0  0  0  0  0  0
  -15.3350   42.5099  -19.6563 C   0  0  0  0  0  0  0  0  0  0  0  0
  -16.5277   41.8584  -19.8902 C   0  0  0  0  0  0  0  0  0  0  0  0
  -17.1405   42.0360  -21.1093 C   0  0  0  0  0  0  0  0  0  0  0  0
  -16.6026   42.8458  -22.1106 C   0  0  0  0  0  0  0  0  0  0  0  0
  -17.2937   42.9971  -23.3857 C   0  0  0  0  0  0  0  0  0  0  0  0
  -17.3426   44.1299  -24.1442 N   0  0  0  0  0  0  0  0  0  0  0  0
  -18.0709   43.8619  -25.2361 C   0  0  0  0  0  0  0  0  0  0  0  0
  -18.3846   44.7879  -26.3265 C   0  0  0  0  0  0  0  0  0  0  0  0
  -17.2603   45.7710  -26.5530 C   0  0  0  0  0  0  0  0  0  0  0  0
  -19.6223   45.5980  -25.9844 C   0  0  0  0  0  0  0  0  0  0  0  0
  -18.6047   44.0377  -27.6277 C   0  0  0  0  0  0  0  0  0  0  0  0
  -18.4735   42.5829  -25.1664 N   0  0  0  0  0  0  0  0  0  0  0  0
  -18.0035   42.0249  -24.0265 C   0  0  0  0  0  0  0  0  0  0  0  0
  -18.2603   40.6402  -23.6407 C   0  0  0  0  0  0  0  0  0  0  0  0
  -19.4691   40.0287  -23.8957 C   0  0  0  0  0  0  0  0  0  0  0  0
  -19.6680   38.7177  -23.5119 C   0  0  0  0  0  0  0  0  0  0  0  0
  -18.7028   37.9740  -22.8751 C   0  0  0  0  0  0  0  0  0  0  0  0
  -17.4998   38.5722  -22.6177 C   0  0  0  0  0  0  0  0  0  0  0  0
  -17.2952   39.8896  -23.0016 C   0  0  0  0  0  0  0  0  0  0  0  0
  -16.7167   37.6313  -21.9824 O   0  0  0  0  0  0  0  0  0  0  0  0
  -17.3569   36.3797  -21.9775 C   0  0  0  0  0  0  0  0  0  0  0  0
  -18.6656   36.6756  -22.4040 O   0  0  0  0  0  0  0  0  0  0  0  0
  -15.4418   43.4543  -21.8283 N   0  0  0  0  0  0  0  0  0  0  0  0
  1  2  1  0
  2  3  2  0
  3  4  1  0
  4  5  2  0
  5  6  1  0
  6  7  1  0
  7  8  1  0
  8  9  1  0
  9 10  1  0
 10 11  1  0
 10 12  1  0
 10 13  1  0
  9 14  2  0
 14 15  1  0
 15 16  1  0
 16 17  2  0
 17 18  1  0
 18 19  2  0
 19 20  1  0
 20 21  2  0
 20 22  1  0
 22 23  1  0
 23 24  1  0
  6 25  2  0
 25  2  1  0
 15  7  2  0
 21 16  1  0
 24 19  1  0
M  END
$$$$
