
     RDKit          3D

 29 32  0  0  0  0  0  0  0  0999 V2000
  -31.8873   23.1194  -28.2743 C   0  0  0  0  0  0  0  0  0  0  0  0
  -31.1040   21.8768  -28.2296 C   0  0  0  0  0  0  0  0  0  0  0  0
  -31.4248   20.8154  -29.0543 C   0  0  0  0  0  0  0  0  0  0  0  0
  -30.6781   19.6635  -28.9992 C   0  0  0  0  0  0  0  0  0  0  0  0
  -31.0443   18.5417  -29.8866 C   0  0  0  0  0  0  0  0  0  0  0  0
  -29.6499   19.5922  -28.1443 N   0  0  0  0  0  0  0  0  0  0  0  0
  -29.3143   20.6143  -27.3269 C   0  0  0  0  0  0  0  0  0  0  0  0
  -27.9221   20.4666  -26.2086 S   0  0  0  0  0  0  0  0  0  0  0  0
  -27.0257   18.9318  -26.5708 C   0  0  0  0  0  0  0  0  0  0  0  0
  -26.0551   19.1365  -27.6854 C   0  0  0  0  0  0  0  0  0  0  0  0
  -24.8920   18.6906  -27.5243 O   0  0  0  0  0  0  0  0  0  0  0  0
  -26.3866   19.7917  -28.8777 N   0  0  0  0  0  0  0  0  0  0  0  0
  -25.5610   19.6505  -30.0990 C   0  0  0  0  0  0  0  0  0  0  0  0
  -25.4507   19.9813  -31.1807 N   0  0  0  0  0  0  0  0  0  0  0  0
  -24.5315   19.6499  -32.0552 C   0  0  0  0  0  0  0  0  0  0  0  0
  -23.5708   18.7946  -31.6274 C   0  0  0  0  0  0  0  0  0  0  0  0
  -22.4065   18.2265  -32.3568 C   0  0  0  0  0  0  0  0  0  0  0  0
  -22.5571   16.7466  -32.3527 C   0  0  0  0  0  0  0  0  0  0  0  0
  -23.8652   16.2596  -32.4638 C   0  0  0  0  0  0  0  0  0  0  0  0
  -24.1455   14.9201  -32.5264 C   0  0  0  0  0  0  0  0  0  0  0  0
  -23.1175   14.0201  -32.4791 C   0  0  0  0  0  0  0  0  0  0  0  0
  -21.8231   14.4905  -32.3682 C   0  0  0  0  0  0  0  0  0  0  0  0
  -20.7741   13.5981  -32.3067 C   0  0  0  0  0  0  0  0  0  0  0  0
  -19.4683   14.0208  -32.1834 C   0  0  0  0  0  0  0  0  0  0  0  0
  -19.2178   15.3743  -32.1205 C   0  0  0  0  0  0  0  0  0  0  0  0
  -20.2390   16.3000  -32.1789 C   0  0  0  0  0  0  0  0  0  0  0  0
  -21.5352   15.8537  -32.3039 C   0  0  0  0  0  0  0  0  0  0  0  0
  -24.0488   18.5066  -29.9612 S   0  0  0  0  0  0  0  0  0  0  0  0
  -30.0569   21.7297  -27.3968 N   0  0  0  0  0  0  0  0  0  0  0  0
  1  2  1  0
  2  3  2  0
  3  4  1  0
  4  5  1  0
  4  6  2  0
  6  7  1  0
  7  8  1  0
  8  9  1  0
  9 10  1  0
 10 11  2  0
 10 12  1  0
 12 13  1  0
 13 14  2  0
 14 15  1  0
 15 16  2  0
 16 17  1  0
 17 18  1  0
 18 19  2  0
 19 20  1  0
 20 21  2  0
 21 22  1  0
 22 23  2  0
 23 24  1  0
 24 25  2  0
 25 26  1  0
 26 27  2  0
 16 28  1  0
  7 29  2  0
 29  2  1  0
 28 13  1  0
 27 18  1  0
 27 22  1  0
M  END
$$$$
