
     RDKit          3D

 23 26  0  0  0  0  0  0  0  0999 V2000
  -19.2674   42.5374  -23.8174 O   0  0  0  0  0  0  0  0  0  0  0  0
  -18.7691   41.3138  -23.3808 C   0  0  0  0  0  0  0  0  0  0  0  0
  -17.5055   41.2548  -22.8134 C   0  0  0  0  0  0  0  0  0  0  0  0
  -17.0016   40.0641  -22.3803 C   0  0  0  0  0  0  0  0  0  0  0  0
  -17.7525   38.9243  -22.5092 C   0  0  0  0  0  0  0  0  0  0  0  0
  -17.5575   37.6208  -22.1914 N   0  0  0  0  0  0  0  0  0  0  0  0
  -18.6151   36.8659  -22.5233 C   0  0  0  0  0  0  0  0  0  0  0  0
  -18.7708   35.4129  -22.3321 C   0  0  0  0  0  0  0  0  0  0  0  0
  -17.7391   34.6772  -21.7957 C   0  0  0  0  0  0  0  0  0  0  0  0
  -17.8856   33.2977  -21.6137 C   0  0  0  0  0  0  0  0  0  0  0  0
  -19.0526   32.6543  -21.9639 C   0  0  0  0  0  0  0  0  0  0  0  0
  -20.0812   33.3950  -22.5004 C   0  0  0  0  0  0  0  0  0  0  0  0
  -19.9297   34.7601  -22.6776 C   0  0  0  0  0  0  0  0  0  0  0  0
  -19.5128   37.7055  -23.0683 N   0  0  0  0  0  0  0  0  0  0  0  0
  -19.0289   38.9584  -23.0777 C   0  0  0  0  0  0  0  0  0  0  0  0
  -19.5357   40.1645  -23.5149 C   0  0  0  0  0  0  0  0  0  0  0  0
  -20.8895   40.2469  -24.1229 C   0  0  0  0  0  0  0  0  0  0  0  0
  -20.8227   39.9843  -25.5218 N   0  0  0  0  0  0  0  0  0  0  0  0
  -19.7963   40.6586  -26.2450 C   0  0  0  0  0  0  0  0  0  0  0  0
  -19.2383   39.8392  -27.3886 C   0  0  0  0  0  0  0  0  0  0  0  0
  -20.2873   39.1629  -28.2079 C   0  0  0  0  0  0  0  0  0  0  0  0
  -21.3879   38.5817  -27.3490 C   0  0  0  0  0  0  0  0  0  0  0  0
  -20.8665   38.6079  -25.9041 C   0  0  0  0  0  0  0  0  0  0  0  0
  1  2  1  0
  2  3  2  0
  3  4  1  0
  4  5  2  0
  5  6  1  0
  6  7  1  0
  7  8  1  0
  8  9  2  0
  9 10  1  0
 10 11  2  0
 11 12  1  0
 12 13  2  0
  7 14  2  0
 14 15  1  0
 15 16  2  0
 16 17  1  0
 17 18  1  0
 18 19  1  0
 19 20  1  0
 20 21  1  0
 21 22  1  0
 22 23  1  0
 16  2  1  0
 23 18  1  0
 15  5  1  0
 13  8  1  0
M  END
$$$$
