
     RDKit          3D

 30 31  0  0  0  0  0  0  0  0999 V2000
  -20.1723   35.4922  -20.0766 C   0  0  0  0  0  0  0  0  0  0  0  0
  -19.8697   34.3557  -21.0246 C   0  0  0  0  0  0  0  0  0  0  0  0
  -20.5934   33.1186  -20.5078 C   0  0  0  0  0  0  0  0  0  0  0  0
  -18.3716   34.1104  -21.1306 C   0  0  0  0  0  0  0  0  0  0  0  0
  -17.8467   35.0669  -22.1734 C   0  0  2  0  0  0  0  0  0  0  0  0
  -18.7408   36.2038  -22.3529 N   0  0  0  0  0  0  0  0  0  0  0  0
  -18.5011   37.4730  -21.8129 C   0  0  0  0  0  0  0  0  0  0  0  0
  -17.4552   37.5475  -21.0733 O   0  0  0  0  0  0  0  0  0  0  0  0
  -19.2879   38.6984  -21.9858 C   0  0  1  0  0  0  0  0  0  0  0  0
  -18.4171   39.8786  -21.9759 N   0  0  0  0  0  0  0  0  0  0  0  0
  -17.9346   40.3349  -20.7235 C   0  0  0  0  0  0  0  0  0  0  0  0
  -18.3047   39.7617  -19.6669 O   0  0  0  0  0  0  0  0  0  0  0  0
  -17.0026   41.4754  -20.6460 C   0  0  0  0  0  0  0  0  0  0  0  0
  -16.8300   42.2771  -21.7535 C   0  0  0  0  0  0  0  0  0  0  0  0
  -15.9513   43.3638  -21.7024 C   0  0  0  0  0  0  0  0  0  0  0  0
  -15.2991   43.5614  -20.5072 C   0  0  0  0  0  0  0  0  0  0  0  0
  -15.4546   42.7781  -19.3936 C   0  0  0  0  0  0  0  0  0  0  0  0
  -14.7639   42.9894  -18.1319 C   0  0  0  0  0  0  0  0  0  0  0  0
  -14.8172   42.0927  -17.0998 C   0  0  0  0  0  0  0  0  0  0  0  0
  -14.1345   42.3397  -15.9016 C   0  0  0  0  0  0  0  0  0  0  0  0
  -13.3942   43.4845  -15.7272 C   0  0  0  0  0  0  0  0  0  0  0  0
  -13.3407   44.3875  -16.7668 C   0  0  0  0  0  0  0  0  0  0  0  0
  -14.0174   44.1311  -17.9397 C   0  0  0  0  0  0  0  0  0  0  0  0
  -16.3267   41.7390  -19.5193 N   0  0  0  0  0  0  0  0  0  0  0  0
  -19.8498   38.7026  -23.4202 C   0  0  1  0  0  0  0  0  0  0  0  0
  -18.7109   38.6235  -24.3790 C   0  0  0  0  0  0  0  0  0  0  0  0
  -20.7340   37.6220  -23.5739 O   0  0  0  0  0  0  0  0  0  0  0  0
  -17.8490   34.2904  -23.5646 B   0  0  0  0  0  0  0  0  0  0  0  0
  -18.7151   34.6986  -24.6658 O   0  0  0  0  0  0  0  0  0  0  0  0
  -17.2911   32.9277  -23.5384 O   0  0  0  0  0  0  0  0  0  0  0  0
  1  2  1  0
  2  3  1  0
  2  4  1  0
  5  4  1  1
  5  6  1  0
  6  7  1  0
  7  8  2  0
  7  9  1  0
  9 10  1  6
 10 11  1  0
 11 12  2  0
 11 13  1  0
 13 14  2  0
 14 15  1  0
 15 16  2  0
 16 17  1  0
 17 18  1  0
 18 19  2  0
 19 20  1  0
 20 21  2  0
 21 22  1  0
 22 23  2  0
 17 24  2  0
  9 25  1  0
 25 26  1  6
 25 27  1  0
  5 28  1  0
 28 29  1  0
 28 30  1  0
 24 13  1  0
 23 18  1  0
M  END
$$$$
