
     RDKit          3D

  9  9  0  0  0  0  0  0  0  0999 V2000
  -12.8302   13.2780  -31.1904 C   0  0  0  0  0  0  0  0  0  0  0  0
  -13.9146   13.8941  -30.3693 C   0  0  0  0  0  0  0  0  0  0  0  0
  -14.0321   13.6038  -29.0205 C   0  0  0  0  0  0  0  0  0  0  0  0
  -15.0433   14.1811  -28.2647 C   0  0  0  0  0  0  0  0  0  0  0  0
  -15.2110   13.9304  -26.9169 O   0  0  0  0  0  0  0  0  0  0  0  0
  -15.9218   15.0405  -28.8708 C   0  0  0  0  0  0  0  0  0  0  0  0
  -15.7524   15.2892  -30.2162 C   0  0  0  0  0  0  0  0  0  0  0  0
  -16.5672   16.0851  -30.7744 O   0  0  0  0  0  0  0  0  0  0  0  0
  -14.7809   14.7177  -30.8829 O   0  0  0  0  0  0  0  0  0  0  0  0
  1  2  1  0
  2  3  2  0
  3  4  1  0
  4  5  1  0
  4  6  2  0
  6  7  1  0
  7  8  2  0
  7  9  1  0
  9  2  1  0
M  END
$$$$
