
     RDKit          3D

 25 25  0  0  0  0  0  0  0  0999 V2000
  -23.1860   37.7011  -29.2484 C   0  0  0  0  0  0  0  0  0  0  0  0
  -22.6641   39.1029  -28.8066 C   0  0  0  0  0  0  0  0  0  0  0  0
  -22.8966   39.2087  -27.3516 C   0  0  0  0  0  0  0  0  0  0  0  0
  -21.7877   39.4698  -26.4307 C   0  0  0  0  0  0  0  0  0  0  0  0
  -21.0135   40.7272  -26.4821 C   0  0  0  0  0  0  0  0  0  0  0  0
  -21.0261   41.6262  -25.3100 C   0  0  2  0  0  0  0  0  0  0  0  0
  -21.5278   42.8745  -25.7724 O   0  0  0  0  0  0  0  0  0  0  0  0
  -19.6085   41.9957  -24.8881 C   0  0  0  0  0  0  0  0  0  0  0  0
  -19.2600   42.3699  -23.7023 C   0  0  0  0  0  0  0  0  0  0  0  0
  -18.2519   41.7544  -22.8421 C   0  0  1  0  0  0  0  0  0  0  0  0
  -17.6098   42.8422  -22.0279 C   0  0  2  0  0  0  0  0  0  0  0  0
  -16.2638   43.0356  -22.3486 O   0  0  0  0  0  0  0  0  0  0  0  0
  -17.7827   42.4269  -20.5767 C   0  0  0  0  0  0  0  0  0  0  0  0
  -18.9942   41.5716  -20.6689 C   0  0  0  0  0  0  0  0  0  0  0  0
  -19.9083   41.6332  -19.8867 O   0  0  0  0  0  0  0  0  0  0  0  0
  -18.7991   40.7103  -21.8651 C   0  0  2  0  0  0  0  0  0  0  0  0
  -17.7391   39.6566  -21.7011 C   0  0  0  0  0  0  0  0  0  0  0  0
  -17.6213   38.6562  -22.7860 C   0  0  0  0  0  0  0  0  0  0  0  0
  -16.9167   37.3962  -22.5841 C   0  0  0  0  0  0  0  0  0  0  0  0
  -17.6538   36.1458  -22.3755 C   0  0  0  0  0  0  0  0  0  0  0  0
  -17.0085   34.9828  -21.7570 C   0  0  0  0  0  0  0  0  0  0  0  0
  -17.7492   33.6987  -21.6353 C   0  0  0  0  0  0  0  0  0  0  0  0
  -18.8515   33.4201  -22.5330 C   0  0  0  0  0  0  0  0  0  0  0  0
  -18.7926   33.5189  -23.7911 O   0  0  0  0  0  0  0  0  0  0  0  0
  -20.0764   33.0141  -22.0178 O   0  0  0  0  0  0  0  0  0  0  0  0
  1  2  1  0
  2  3  1  0
  3  4  1  0
  4  5  1  0
  5  6  1  0
  6  7  1  6
  6  8  1  0
  8  9  2  0
 10  9  1  1
 10 11  1  0
 11 12  1  6
 11 13  1  0
 13 14  1  0
 14 15  2  0
 14 16  1  0
 16 17  1  1
 17 18  1  0
 18 19  1  0
 19 20  1  0
 20 21  1  0
 21 22  1  0
 22 23  1  0
 23 24  2  0
 23 25  1  0
 16 10  1  0
M  END
$$$$
