
     RDKit          3D

 34 34  0  0  0  0  0  0  0  0999 V2000
  -29.4502   20.6508  -32.0170 C   0  0  0  0  0  0  0  0  0  0  0  0
  -29.7400   20.8098  -30.5785 C   0  0  0  0  0  0  0  0  0  0  0  0
  -29.3544   22.1216  -29.9681 C   0  0  0  0  0  0  0  0  0  0  0  0
  -29.5247   19.6916  -29.6801 C   0  0  0  0  0  0  0  0  0  0  0  0
  -30.6053   18.8266  -29.5213 N   0  0  0  0  0  0  0  0  0  0  0  0
  -30.5970   17.8068  -28.6600 C   0  0  0  0  0  0  0  0  0  0  0  0
  -31.7132   16.9275  -28.5108 N   0  0  0  0  0  0  0  0  0  0  0  0
  -31.7478   15.7508  -29.3564 C   0  0  0  0  0  0  0  0  0  0  0  0
  -32.9757   17.2073  -27.3994 S   0  0  0  0  0  6  0  0  0  0  0  0
  -33.8314   18.7362  -27.7570 C   0  0  0  0  0  0  0  0  0  0  0  0
  -32.4352   17.2677  -25.9990 O   0  0  0  0  0  0  0  0  0  0  0  0
  -33.9861   16.1038  -27.4665 O   0  0  0  0  0  0  0  0  0  0  0  0
  -29.4984   17.6222  -27.9246 N   0  0  0  0  0  0  0  0  0  0  0  0
  -28.4072   18.3911  -27.9976 C   0  0  0  0  0  0  0  0  0  0  0  0
  -27.2446   18.1315  -27.1854 C   0  0  0  0  0  0  0  0  0  0  0  0
  -26.5556   16.9188  -27.2700 C   0  0  0  0  0  0  0  0  0  0  0  0
  -25.4903   16.6200  -26.4526 C   0  0  0  0  0  0  0  0  0  0  0  0
  -25.0500   17.5158  -25.5016 C   0  0  0  0  0  0  0  0  0  0  0  0
  -23.9956   17.2081  -24.7004 F   0  0  0  0  0  0  0  0  0  0  0  0
  -25.7151   18.7176  -25.4006 C   0  0  0  0  0  0  0  0  0  0  0  0
  -26.7959   19.0080  -26.2368 C   0  0  0  0  0  0  0  0  0  0  0  0
  -28.4213   19.4740  -28.9236 C   0  0  0  0  0  0  0  0  0  0  0  0
  -27.1672   20.1122  -29.0824 C   0  0  0  0  0  0  0  0  0  0  0  0
  -26.6679   20.7498  -30.0950 C   0  0  0  0  0  0  0  0  0  0  0  0
  -25.2921   21.3663  -30.0446 C   0  0  0  0  0  0  0  0  0  0  0  0
  -24.9634   21.8128  -31.3158 O   0  0  0  0  0  0  0  0  0  0  0  0
  -24.2414   20.3364  -29.6618 C   0  0  0  0  0  0  0  0  0  0  0  0
  -22.9245   21.0372  -29.6395 C   0  0  0  0  0  0  0  0  0  0  0  0
  -22.9837   22.0706  -28.6950 O   0  0  0  0  0  0  0  0  0  0  0  0
  -21.7710   20.1335  -29.3305 C   0  0  0  0  0  0  0  0  0  0  0  0
  -21.5783   19.0413  -30.2845 C   0  0  0  0  0  0  0  0  0  0  0  0
  -22.2794   18.8552  -31.2994 O   0  0  0  0  0  0  0  0  0  0  0  0
  -20.5280   18.1517  -30.0241 O   0  0  0  0  0  1  0  0  0  0  0  0
  -27.5601   19.3179  -28.9280 Ca  0  0  0  0  0 15  0  0  0  0  0  0
  1  2  1  0
  2  3  1  0
  2  4  1  0
  4  5  2  0
  5  6  1  0
  6  7  1  0
  7  8  1  0
  7  9  1  0
  9 10  1  0
  9 11  2  0
  9 12  2  0
  6 13  2  0
 13 14  1  0
 14 15  1  0
 15 16  2  0
 16 17  1  0
 17 18  2  0
 18 19  1  0
 18 20  1  0
 20 21  2  0
 14 22  2  0
 22 23  1  0
 23 24  2  0
 24 25  1  0
 25 26  1  0
 25 27  1  0
 27 28  1  0
 28 29  1  0
 28 30  1  0
 30 31  1  0
 31 32  2  0
 31 33  1  0
 22  4  1  0
 21 15  1  0
M  CHG  2  33  -1  34   2
M  END
$$$$
