
     RDKit          3D

 29 32  0  0  0  0  0  0  0  0999 V2000
  -19.8596   33.2109  -23.0656 O   0  0  0  0  0  0  0  0  0  0  0  0
  -19.3318   32.5493  -22.1410 C   0  0  0  0  0  0  0  0  0  0  0  0
  -18.9987   31.2305  -22.3527 O   0  0  0  0  0  0  0  0  0  0  0  0
  -19.0748   33.2011  -20.8317 C   0  0  0  0  0  0  0  0  0  0  0  0
  -19.1176   34.6435  -20.9765 N   0  0  0  0  0  0  0  0  0  0  0  0
  -20.0799   35.4361  -20.4854 N   0  0  0  0  0  0  0  0  0  0  0  0
  -19.8211   36.6956  -20.7919 N   0  0  0  0  0  0  0  0  0  0  0  0
  -18.6738   36.7298  -21.4933 C   0  0  0  0  0  0  0  0  0  0  0  0
  -18.0060   37.9310  -22.0415 C   0  0  0  0  0  0  0  0  0  0  0  0
  -18.3780   39.2192  -21.8287 C   0  0  0  0  0  0  0  0  0  0  0  0
  -17.5038   40.0391  -22.5107 C   0  0  0  0  0  0  0  0  0  0  0  0
  -17.5108   41.4495  -22.5722 N   0  0  0  0  0  0  0  0  0  0  0  0
  -18.7389   42.1530  -22.3870 C   0  0  0  0  0  0  0  0  0  0  0  0
  -18.6000   43.5322  -21.8442 C   0  0  0  0  0  0  0  0  0  0  0  0
  -17.4340   44.3006  -22.4191 C   0  0  0  0  0  0  0  0  0  0  0  0
  -16.4899   44.5993  -21.4318 O   0  0  0  0  0  0  0  0  0  0  0  0
  -16.4474   45.7071  -20.6139 C   0  0  0  0  0  0  0  0  0  0  0  0
  -16.7453   45.7321  -19.2738 C   0  0  0  0  0  0  0  0  0  0  0  0
  -16.6783   46.8933  -18.5158 C   0  0  0  0  0  0  0  0  0  0  0  0
  -16.9735   46.9017  -17.2032 F   0  0  0  0  0  0  0  0  0  0  0  0
  -16.3010   48.0597  -19.1244 C   0  0  0  0  0  0  0  0  0  0  0  0
  -15.9977   48.0458  -20.4777 C   0  0  0  0  0  0  0  0  0  0  0  0
  -16.0685   46.8904  -21.2139 C   0  0  0  0  0  0  0  0  0  0  0  0
  -15.6346   46.9486  -23.0796 Br  0  0  0  0  0  0  0  0  0  0  0  0
  -16.7126   43.4959  -23.4895 C   0  0  0  0  0  0  0  0  0  0  0  0
  -16.2935   42.1806  -22.8195 C   0  0  0  0  0  0  0  0  0  0  0  0
  -16.6427   39.1786  -23.1036 N   0  0  0  0  0  0  0  0  0  0  0  0
  -16.9509   37.9547  -22.8189 O   0  0  0  0  0  0  0  0  0  0  0  0
  -18.2669   35.4520  -21.5894 N   0  0  0  0  0  0  0  0  0  0  0  0
  1  2  2  0
  2  3  1  0
  2  4  1  0
  4  5  1  0
  5  6  1  0
  6  7  2  0
  7  8  1  0
  8  9  1  0
  9 10  2  0
 10 11  1  0
 11 12  1  0
 12 13  1  0
 13 14  1  0
 14 15  1  0
 15 16  1  0
 16 17  1  0
 17 18  2  0
 18 19  1  0
 19 20  1  0
 19 21  2  0
 21 22  1  0
 22 23  2  0
 23 24  1  0
 15 25  1  0
 25 26  1  0
 11 27  2  0
 27 28  1  0
  8 29  2  0
 29  5  1  0
 28  9  1  0
 26 12  1  0
 23 17  1  0
M  END
$$$$
