
     RDKit          3D

 41 44  0  0  0  0  0  0  0  0999 V2000
  -15.1237   19.7217  -35.7394 C   0  0  0  0  0  0  0  0  0  0  0  0
  -14.6343   18.3827  -35.4486 N   0  0  0  0  0  0  0  0  0  0  0  0
  -15.0204   17.4411  -36.4890 C   0  0  1  0  0  0  0  0  0  0  0  0
  -14.6210   16.0407  -36.0812 C   0  0  0  0  0  0  0  0  0  0  0  0
  -16.4955   17.4834  -36.6226 C   0  0  0  0  0  0  0  0  0  0  0  0
  -16.9406   17.5695  -37.8020 O   0  0  0  0  0  0  0  0  0  0  0  0
  -17.3785   17.4323  -35.5082 N   0  0  0  0  0  0  0  0  0  0  0  0
  -18.7920   17.3535  -35.7578 C   0  0  1  0  0  0  0  0  0  0  0  0
  -19.6658   17.8919  -34.6676 C   0  0  0  0  0  0  0  0  0  0  0  0
  -20.8731   17.0597  -34.4981 N   0  0  0  0  0  0  0  0  0  0  0  0
  -21.0471   16.6516  -33.1535 C   0  0  0  0  0  0  0  0  0  0  0  0
  -20.5686   17.4087  -32.2326 O   0  0  0  0  0  0  0  0  0  0  0  0
  -21.7220   15.4465  -32.6761 C   0  0  0  0  0  0  0  0  0  0  0  0
  -20.9782   14.7569  -31.5463 C   0  0  0  0  0  0  0  0  0  0  0  0
  -21.8178   13.5964  -31.0677 C   0  0  0  0  0  0  0  0  0  0  0  0
  -19.6840   14.2216  -32.0447 C   0  0  0  0  0  0  0  0  0  0  0  0
  -21.8691   16.6304  -35.4370 C   0  0  0  0  0  0  0  0  0  0  0  0
  -22.1669   17.7248  -36.4738 C   0  0  0  0  0  0  0  0  0  0  0  0
  -21.5514   17.4145  -37.7867 C   0  0  1  0  0  0  0  0  0  0  0  0
  -22.3361   17.7916  -38.9991 C   0  0  0  0  0  0  0  0  0  0  0  0
  -21.2247   18.0801  -40.0162 C   0  0  0  0  0  0  0  0  0  0  0  0
  -20.2707   18.8741  -39.0932 C   0  0  1  0  0  0  0  0  0  0  0  0
  -20.9278   20.2003  -38.9592 C   0  0  0  0  0  0  0  0  0  0  0  0
  -21.8104   20.4415  -38.0949 O   0  0  0  0  0  0  0  0  0  0  0  0
  -20.6055   21.3034  -39.7962 N   0  0  0  0  0  0  0  0  0  0  0  0
  -19.7925   21.1815  -40.9977 C   0  0  0  0  0  0  0  0  0  0  0  0
  -18.6284   22.0621  -40.8516 C   0  0  0  0  0  0  0  0  0  0  0  0
  -18.6072   23.1926  -40.0327 C   0  0  0  0  0  0  0  0  0  0  0  0
  -17.4777   23.9744  -39.9524 C   0  0  0  0  0  0  0  0  0  0  0  0
  -16.3514   23.6603  -40.6738 C   0  0  0  0  0  0  0  0  0  0  0  0
  -16.3299   22.5692  -41.4811 C   0  0  0  0  0  0  0  0  0  0  0  0
  -17.4602   21.7962  -41.5545 C   0  0  0  0  0  0  0  0  0  0  0  0
  -20.5711   21.6598  -42.1842 C   0  0  0  0  0  0  0  0  0  0  0  0
  -20.4123   22.8982  -42.7550 C   0  0  0  0  0  0  0  0  0  0  0  0
  -21.2106   23.2447  -43.8417 C   0  0  0  0  0  0  0  0  0  0  0  0
  -22.1615   22.3519  -44.3512 C   0  0  0  0  0  0  0  0  0  0  0  0
  -22.3172   21.1079  -43.7752 C   0  0  0  0  0  0  0  0  0  0  0  0
  -21.5103   20.8038  -42.7037 C   0  0  0  0  0  0  0  0  0  0  0  0
  -20.2788   18.0976  -37.8686 N   0  0  0  0  0  0  0  0  0  0  0  0
  -19.1617   18.1044  -37.0020 C   0  0  0  0  0  0  0  0  0  0  0  0
  -18.3010   18.9342  -37.3813 O   0  0  0  0  0  0  0  0  0  0  0  0
  1  2  1  0
  2  3  1  0
  3  4  1  1
  3  5  1  0
  5  6  2  0
  5  7  1  0
  8  7  1  1
  8  9  1  0
  9 10  1  0
 10 11  1  0
 11 12  2  0
 11 13  1  0
 13 14  1  0
 14 15  1  0
 14 16  1  0
 10 17  1  0
 17 18  1  0
 19 18  1  1
 19 20  1  0
 20 21  1  0
 21 22  1  0
 22 23  1  1
 23 24  2  0
 23 25  1  0
 25 26  1  0
 26 27  1  0
 27 28  2  0
 28 29  1  0
 29 30  2  0
 30 31  1  0
 31 32  2  0
 26 33  1  0
 33 34  2  0
 34 35  1  0
 35 36  2  0
 36 37  1  0
 37 38  2  0
 22 39  1  0
 39 40  1  0
 40 41  2  0
 40  8  1  0
 39 19  1  0
 32 27  1  0
 38 33  1  0
M  END
$$$$
