
     RDKit          3D

 26 26  0  0  0  0  0  0  0  0999 V2000
  -18.7325   46.3965  -22.1482 N   0  0  0  0  0  0  0  0  0  0  0  0
  -17.8475   45.4630  -21.5448 C   0  0  0  0  0  0  0  0  0  0  0  0
  -18.1776   44.1737  -21.5567 N   0  0  0  0  0  0  0  0  0  0  0  0
  -17.4498   43.1942  -21.0328 C   0  0  0  0  0  0  0  0  0  0  0  0
  -16.2496   43.5454  -20.4252 C   0  0  0  0  0  0  0  0  0  0  0  0
  -15.6994   42.4125  -19.9781 N   0  0  0  0  0  0  0  0  0  0  0  0
  -16.5186   41.3781  -20.2893 C   0  0  0  0  0  0  0  0  0  0  0  0
  -17.5862   41.8623  -20.9336 N   0  0  0  0  0  0  0  0  0  0  0  0
  -18.6836   41.0539  -21.4258 C   0  0  2  0  0  0  0  0  0  0  0  0
  -18.6849   39.8165  -20.8472 O   0  0  0  0  0  0  0  0  0  0  0  0
  -18.9408   38.8687  -21.8263 C   0  0  2  0  0  0  0  0  0  0  0  0
  -18.4487   37.4960  -21.4289 C   0  0  0  0  0  0  0  0  0  0  0  0
  -18.7432   36.6194  -22.4531 O   0  0  0  0  0  0  0  0  0  0  0  0
  -18.2607   35.0468  -22.1675 P   0  0  0  0  0  5  0  0  0  0  0  0
  -19.1180   34.3105  -21.1930 O   0  0  0  0  0  0  0  0  0  0  0  0
  -16.6807   35.0822  -21.5505 O   0  0  0  0  0  1  0  0  0  0  0  0
  -18.2963   34.2028  -23.6341 O   0  0  0  0  0  1  0  0  0  0  0  0
  -18.1584   39.4224  -22.9994 C   0  0  1  0  0  0  0  0  0  0  0  0
  -18.4932   38.8250  -24.1938 O   0  0  0  0  0  0  0  0  0  0  0  0
  -18.6060   40.8700  -22.9271 C   0  0  1  0  0  0  0  0  0  0  0  0
  -19.8900   40.9832  -23.4295 O   0  0  0  0  0  0  0  0  0  0  0  0
  -15.9169   44.8890  -20.4190 C   0  0  0  0  0  0  0  0  0  0  0  0
  -14.8444   45.2472  -19.8817 O   0  0  0  0  0  0  0  0  0  0  0  0
  -16.6943   45.8408  -20.9662 N   0  0  0  0  0  0  0  0  0  0  0  0
  -17.9600   40.9441  -21.7721 Na  0  0  0  0  0 15  0  0  0  0  0  0
  -17.9600   40.9441  -21.7721 Na  0  0  0  0  0 15  0  0  0  0  0  0
  1  2  1  0
  2  3  2  0
  3  4  1  0
  4  5  2  0
  5  6  1  0
  6  7  2  0
  7  8  1  0
  9  8  1  1
  9 10  1  0
 10 11  1  0
 11 12  1  1
 12 13  1  0
 13 14  1  0
 14 15  2  0
 14 16  1  0
 14 17  1  0
 11 18  1  0
 18 19  1  6
 18 20  1  0
 20 21  1  6
  5 22  1  0
 22 23  2  0
 22 24  1  0
 24  2  1  0
  8  4  1  0
 20  9  1  0
M  CHG  4  16  -1  17  -1  25   1  26   1
M  END
$$$$
