
     RDKit          3D

 33 36  0  0  0  0  0  0  0  0999 V2000
  -20.1014   22.5418  -30.1871 C   0  0  0  0  0  0  0  0  0  0  0  0
  -20.0868   21.5436  -31.1685 O   0  0  0  0  0  0  0  0  0  0  0  0
  -19.1240   20.5686  -31.1441 C   0  0  0  0  0  0  0  0  0  0  0  0
  -17.9685   20.7007  -30.3816 C   0  0  0  0  0  0  0  0  0  0  0  0
  -17.0149   19.7030  -30.3753 C   0  0  0  0  0  0  0  0  0  0  0  0
  -15.9091   19.8624  -29.6301 N   0  0  0  0  0  0  0  0  0  0  0  0
  -14.9494   18.9134  -29.5957 C   0  0  0  0  0  0  0  0  0  0  0  0
  -15.1293   17.8182  -30.3190 N   0  0  0  0  0  0  0  0  0  0  0  0
  -16.2103   17.5730  -31.0978 C   0  0  0  0  0  0  0  0  0  0  0  0
  -16.3369   16.3860  -31.8414 N   0  0  0  0  0  0  0  0  0  0  0  0
  -15.4468   15.2934  -31.7120 C   0  0  0  0  0  0  0  0  0  0  0  0
  -15.0125   14.6481  -32.8837 C   0  0  0  0  0  0  0  0  0  0  0  0
  -14.1377   13.5907  -32.8704 C   0  0  0  0  0  0  0  0  0  0  0  0
  -13.6376   13.1072  -31.6825 C   0  0  0  0  0  0  0  0  0  0  0  0
  -12.7732   12.0607  -31.6905 F   0  0  0  0  0  0  0  0  0  0  0  0
  -14.0461   13.7204  -30.5232 C   0  0  0  0  0  0  0  0  0  0  0  0
  -13.4517   13.1595  -28.9790 Cl  0  0  0  0  0  0  0  0  0  0  0  0
  -14.9398   14.8008  -30.5356 C   0  0  0  0  0  0  0  0  0  0  0  0
  -17.1928   18.5549  -31.1274 C   0  0  0  0  0  0  0  0  0  0  0  0
  -18.3352   18.4314  -31.8774 C   0  0  0  0  0  0  0  0  0  0  0  0
  -19.2997   19.4446  -31.8815 C   0  0  0  0  0  0  0  0  0  0  0  0
  -20.4525   19.2134  -32.7021 N   0  0  0  0  0  0  0  0  0  0  0  0
  -20.4606   18.3090  -33.7741 C   0  0  0  0  0  0  0  0  0  0  0  0
  -19.5085   17.4891  -33.8376 O   0  0  0  0  0  0  0  0  0  0  0  0
  -21.4810   18.2529  -34.8071 C   0  0  0  0  0  0  0  0  0  0  0  0
  -21.5080   17.3323  -35.7559 C   0  0  0  0  0  0  0  0  0  0  0  0
  -22.4872   17.4660  -36.8720 C   0  0  0  0  0  0  0  0  0  0  0  0
  -23.0019   16.1391  -37.1477 N   0  0  0  0  0  0  0  0  0  0  0  0
  -21.9669   15.2031  -37.4774 C   0  0  0  0  0  0  0  0  0  0  0  0
  -21.6365   15.3246  -38.9502 C   0  0  0  0  0  0  0  0  0  0  0  0
  -22.8067   14.8242  -39.7333 C   0  0  0  0  0  0  0  0  0  0  0  0
  -24.1210   15.0559  -39.0471 C   0  0  0  0  0  0  0  0  0  0  0  0
  -24.0829   16.2006  -38.0737 C   0  0  0  0  0  0  0  0  0  0  0  0
  1  2  1  0
  2  3  1  0
  3  4  2  0
  4  5  1  0
  5  6  2  0
  6  7  1  0
  7  8  2  0
  8  9  1  0
  9 10  1  0
 10 11  1  0
 11 12  2  0
 12 13  1  0
 13 14  2  0
 14 15  1  0
 14 16  1  0
 16 17  1  0
 16 18  2  0
  9 19  2  0
 19 20  1  0
 20 21  2  0
 21 22  1  0
 22 23  1  0
 23 24  2  0
 23 25  1  0
 25 26  2  0
 26 27  1  0
 27 28  1  0
 28 29  1  0
 29 30  1  0
 30 31  1  0
 31 32  1  0
 32 33  1  0
 21  3  1  0
 33 28  1  0
 19  5  1  0
 18 11  1  0
M  END
$$$$
