
     RDKit          3D

 17 19  0  0  0  0  0  0  0  0999 V2000
  -20.9207   39.9097  -24.2863 O   0  0  0  0  0  0  0  0  0  0  0  0
  -19.8461   40.1795  -23.6804 C   0  0  0  0  0  0  0  0  0  0  0  0
  -19.2977   39.0959  -22.8540 C   0  0  0  0  0  0  0  0  0  0  0  0
  -18.9285   39.3202  -21.5373 C   0  0  0  0  0  0  0  0  0  0  0  0
  -18.4064   38.3054  -20.7429 C   0  0  0  0  0  0  0  0  0  0  0  0
  -18.2400   37.0375  -21.2482 C   0  0  0  0  0  0  0  0  0  0  0  0
  -18.5993   36.7882  -22.5567 C   0  0  0  0  0  0  0  0  0  0  0  0
  -19.1215   37.8167  -23.3403 C   0  0  0  0  0  0  0  0  0  0  0  0
  -18.3206   35.4433  -22.7755 O   0  0  0  0  0  0  0  0  0  0  0  0
  -18.2557   34.7583  -21.5080 C   0  0  0  0  0  0  0  0  0  0  0  0
  -17.7504   35.8394  -20.6996 O   0  0  0  0  0  0  0  0  0  0  0  0
  -19.2370   41.4395  -23.8073 N   0  0  0  0  0  0  0  0  0  0  0  0
  -17.8451   41.5976  -23.4567 C   0  0  0  0  0  0  0  0  0  0  0  0
  -17.6231   43.0341  -23.0059 C   0  0  0  0  0  0  0  0  0  0  0  0
  -17.7985   43.9088  -24.2213 C   0  0  0  0  0  0  0  0  0  0  0  0
  -19.0541   43.5845  -24.9675 C   0  0  0  0  0  0  0  0  0  0  0  0
  -19.9540   42.5956  -24.2746 C   0  0  0  0  0  0  0  0  0  0  0  0
  1  2  2  0
  2  3  1  0
  3  4  2  0
  4  5  1  0
  5  6  2  0
  6  7  1  0
  7  8  2  0
  7  9  1  0
  9 10  1  0
 10 11  1  0
  2 12  1  0
 12 13  1  0
 13 14  1  0
 14 15  1  0
 15 16  1  0
 16 17  1  0
  8  3  1  0
 17 12  1  0
 11  6  1  0
M  END
$$$$
