
     RDKit          3D

 17 16  0  0  0  0  0  0  0  0999 V2000
  -11.8126   -3.6413  -32.5295 C   0  0  0  0  0  0  0  0  0  0  0  0
  -12.0756   -2.3790  -33.1801 N   0  0  0  0  0  0  0  0  0  0  0  0
  -11.1489   -1.9469  -34.2020 C   0  0  0  0  0  0  0  0  0  0  0  0
  -13.2081   -1.6097  -32.8125 C   0  0  0  0  0  0  0  0  0  0  0  0
  -13.9856   -2.0267  -31.9181 O   0  0  0  0  0  0  0  0  0  0  0  0
  -13.5307   -0.3922  -33.3858 O   0  0  0  0  0  0  0  0  0  0  0  0
  -14.6346    0.3573  -33.0273 C   0  0  0  0  0  0  0  0  0  0  0  0
  -14.4889    1.2781  -32.0195 C   0  0  0  0  0  0  0  0  0  0  0  0
  -15.5205    2.0646  -31.5955 C   0  0  0  0  0  0  0  0  0  0  0  0
  -16.7454    1.9372  -32.1902 C   0  0  0  0  0  0  0  0  0  0  0  0
  -16.9319    1.0117  -33.2182 C   0  0  0  0  0  0  0  0  0  0  0  0
  -18.2173    0.9209  -33.7979 N   0  0  0  0  0  4  0  0  0  0  0  0
  -19.1158    0.0943  -32.9945 C   0  0  0  0  0  0  0  0  0  0  0  0
  -18.2142    0.3776  -35.1289 C   0  0  0  0  0  0  0  0  0  0  0  0
  -18.8486    2.2400  -33.8637 C   0  0  0  0  0  0  0  0  0  0  0  0
  -15.8619    0.2299  -33.6229 C   0  0  0  0  0  0  0  0  0  0  0  0
  -15.5492   -0.1057  -33.2895 Br  0  0  0  0  0 15  0  0  0  0  0  0
  1  2  1  0
  2  3  1  0
  2  4  1  0
  4  5  2  0
  4  6  1  0
  6  7  1  0
  7  8  2  0
  8  9  1  0
  9 10  2  0
 10 11  1  0
 11 12  1  0
 12 13  1  0
 12 14  1  0
 12 15  1  0
 11 16  2  0
 16  7  1  0
M  CHG  2  12   1  17  -1
M  END
$$$$
