
     RDKit          3D

 29 30  0  0  0  0  0  0  0  0999 V2000
  -22.6535   30.3739  -19.0152 O   0  0  0  0  0  0  0  0  0  0  0  0
  -21.7516   31.0024  -19.6446 C   0  0  0  0  0  0  0  0  0  0  0  0
  -21.2421   32.2033  -19.1841 C   0  0  0  0  0  0  0  0  0  0  0  0
  -20.2589   32.8551  -19.9025 C   0  0  0  0  0  0  0  0  0  0  0  0
  -19.7640   32.3519  -21.0659 N   0  0  0  0  0  0  0  0  0  0  0  0
  -18.7534   33.0596  -21.7679 C   0  0  2  0  0  0  0  0  0  0  0  0
  -17.9921   33.9112  -20.9654 O   0  0  0  0  0  0  0  0  0  0  0  0
  -17.1924   34.5773  -21.8708 C   0  0  2  0  0  0  0  0  0  0  0  0
  -16.7131   35.9071  -21.3974 C   0  0  0  0  0  0  0  0  0  0  0  0
  -16.3790   36.7686  -22.4409 O   0  0  0  0  0  0  0  0  0  0  0  0
  -17.2494   38.1922  -22.4078 P   0  0  0  0  0  5  0  0  0  0  0  0
  -18.5187   38.1044  -23.2459 O   0  0  0  0  0  0  0  0  0  0  0  0
  -16.2554   39.4163  -23.0524 O   0  0  0  0  0  0  0  0  0  0  0  0
  -17.6929   38.6719  -20.8649 O   0  0  0  0  0  0  0  0  0  0  0  0
  -17.6459   40.3352  -20.6467 P   0  0  0  0  0  5  0  0  0  0  0  0
  -17.4706   40.7515  -19.2257 O   0  0  0  0  0  0  0  0  0  0  0  0
  -16.3925   40.9456  -21.6039 O   0  0  0  0  0  0  0  0  0  0  0  0
  -19.0863   41.0061  -21.2185 O   0  0  0  0  0  0  0  0  0  0  0  0
  -18.7975   42.6251  -21.6275 P   0  0  0  0  0  5  0  0  0  0  0  0
  -20.0811   43.2061  -22.1699 O   0  0  0  0  0  0  0  0  0  0  0  0
  -17.5737   42.7744  -22.7661 O   0  0  0  0  0  0  0  0  0  0  0  0
  -18.3937   43.4661  -20.1946 O   0  0  0  0  0  0  0  0  0  0  0  0
  -18.0078   34.7815  -23.1248 C   0  0  1  0  0  0  0  0  0  0  0  0
  -17.4053   34.0693  -24.1698 O   0  0  0  0  0  0  0  0  0  0  0  0
  -19.2922   34.0473  -22.7850 C   0  0  1  0  0  0  0  0  0  0  0  0
  -19.8373   33.4114  -23.8943 O   0  0  0  0  0  0  0  0  0  0  0  0
  -20.2717   31.1981  -21.4835 C   0  0  0  0  0  0  0  0  0  0  0  0
  -19.8452   30.6955  -22.5527 O   0  0  0  0  0  0  0  0  0  0  0  0
  -21.2431   30.5287  -20.7982 N   0  0  0  0  0  0  0  0  0  0  0  0
  1  2  2  0
  2  3  1  0
  3  4  2  0
  4  5  1  0
  6  5  1  1
  6  7  1  0
  7  8  1  0
  8  9  1  1
  9 10  1  0
 10 11  1  0
 11 12  2  0
 11 13  1  0
 11 14  1  0
 14 15  1  0
 15 16  2  0
 15 17  1  0
 15 18  1  0
 18 19  1  0
 19 20  2  0
 19 21  1  0
 19 22  1  0
  8 23  1  0
 23 24  1  6
 23 25  1  0
 25 26  1  6
  5 27  1  0
 27 28  2  0
 27 29  1  0
 29  2  1  0
 25  6  1  0
M  END
$$$$
