
     RDKit          3D

 30 34  0  0  0  0  0  0  0  0999 V2000
  -19.1541   -3.9710  -28.0044 C   0  0  0  0  0  0  0  0  0  0  0  0
  -18.7366   -3.8068  -29.3454 O   0  0  0  0  0  0  0  0  0  0  0  0
  -17.3762   -3.7578  -29.6050 C   0  0  0  0  0  0  0  0  0  0  0  0
  -16.4700   -4.5729  -28.9552 C   0  0  0  0  0  0  0  0  0  0  0  0
  -15.1169   -4.5191  -29.2182 C   0  0  0  0  0  0  0  0  0  0  0  0
  -14.6284   -3.6158  -30.1709 C   0  0  0  0  0  0  0  0  0  0  0  0
  -15.5039   -2.8024  -30.8238 C   0  0  0  0  0  0  0  0  0  0  0  0
  -15.0594   -1.8970  -31.7716 C   0  0  0  0  0  0  0  0  0  0  0  0
  -13.6919   -1.7572  -32.1203 N   0  0  0  0  0  0  0  0  0  0  0  0
  -13.3435   -0.9361  -33.2581 C   0  0  0  0  0  0  0  0  0  0  0  0
  -13.3877    0.4987  -32.9672 C   0  0  0  0  0  0  0  0  0  0  0  0
  -12.7580    0.9485  -31.8189 C   0  0  0  0  0  0  0  0  0  0  0  0
  -12.7865    2.2963  -31.5241 C   0  0  0  0  0  0  0  0  0  0  0  0
  -13.4340    3.1774  -32.3643 C   0  0  0  0  0  0  0  0  0  0  0  0
  -14.0516    2.6942  -33.5012 C   0  0  0  0  0  0  0  0  0  0  0  0
  -14.0352    1.3460  -33.8159 C   0  0  0  0  0  0  0  0  0  0  0  0
  -16.0113   -1.1337  -32.3640 N   0  0  0  0  0  0  0  0  0  0  0  0
  -17.3234   -1.1919  -32.1030 C   0  0  0  0  0  0  0  0  0  0  0  0
  -18.2589   -0.3469  -32.7772 N   0  0  0  0  0  0  0  0  0  0  0  0
  -19.4795   -0.7295  -33.1963 C   0  0  0  0  0  0  0  0  0  0  0  0
  -20.0898   -2.0000  -33.0713 N   0  0  0  0  0  0  0  0  0  0  0  0
  -20.0994    0.3199  -33.7948 N   0  0  0  0  0  0  0  0  0  0  0  0
  -19.2737    1.3656  -33.7553 C   0  0  0  0  0  0  0  0  0  0  0  0
  -19.3261    2.6713  -34.1832 C   0  0  0  0  0  0  0  0  0  0  0  0
  -18.2856    3.5533  -33.9982 C   0  0  0  0  0  0  0  0  0  0  0  0
  -17.1355    3.1410  -33.3637 C   0  0  0  0  0  0  0  0  0  0  0  0
  -17.0788    1.8111  -32.9263 C   0  0  0  0  0  0  0  0  0  0  0  0
  -18.1165    0.9239  -33.1085 C   0  0  0  0  0  0  0  0  0  0  0  0
  -17.7288   -2.0685  -31.1893 N   0  0  0  0  0  0  0  0  0  0  0  0
  -16.8659   -2.8695  -30.5464 C   0  0  0  0  0  0  0  0  0  0  0  0
  1  2  1  0
  2  3  1  0
  3  4  2  0
  4  5  1  0
  5  6  2  0
  6  7  1  0
  7  8  2  0
  8  9  1  0
  9 10  1  0
 10 11  1  0
 11 12  2  0
 12 13  1  0
 13 14  2  0
 14 15  1  0
 15 16  2  0
  8 17  1  0
 17 18  2  0
 18 19  1  0
 19 20  1  0
 20 21  1  0
 20 22  2  0
 22 23  1  0
 23 24  2  0
 24 25  1  0
 25 26  2  0
 26 27  1  0
 27 28  2  0
 18 29  1  0
 29 30  2  0
 30  3  1  0
 30  7  1  0
 16 11  1  0
 28 19  1  0
 28 23  1  0
M  END
$$$$
