
     RDKit          3D

  6  5  0  0  0  0  0  0  0  0999 V2000
  -17.0583   40.4323  -22.3371 C   0  0  0  0  0  0  0  0  0  0  0  0
  -16.8601   39.1544  -22.0594 C   0  0  0  0  0  0  0  0  0  0  0  0
  -18.0300   38.2337  -21.8901 C   0  0  0  0  0  0  0  0  0  0  0  0
  -17.5984   36.9038  -21.6082 N   0  0  0  0  0  0  0  0  0  0  0  0
  -18.0962   35.9211  -22.2431 C   0  0  0  0  0  0  0  0  0  0  0  0
  -19.1080   35.1871  -23.2621 S   0  0  0  0  0  0  0  0  0  0  0  0
  1  2  2  0
  2  3  1  0
  3  4  1  0
  4  5  2  0
  5  6  2  0
M  END
$$$$
