
     RDKit          3D

 48 51  0  0  0  0  0  0  0  0999 V2000
  -21.3421   12.5582  -36.0896 N   0  0  0  0  0  0  0  0  0  0  0  0
  -21.0210   13.8356  -35.5361 C   0  0  0  0  0  0  0  0  0  0  0  0
  -20.2576   13.9373  -34.3979 C   0  0  0  0  0  0  0  0  0  0  0  0
  -19.7955   12.7463  -33.7825 N   0  0  0  0  0  0  0  0  0  0  0  0
  -20.3841   12.3293  -32.7591 N   0  0  0  0  0  0  0  0  0  0  0  0
  -21.4980   13.0163  -32.2014 C   0  0  0  0  0  0  0  0  0  0  0  0
  -22.7408   13.0368  -32.7993 C   0  0  0  0  0  0  0  0  0  0  0  0
  -23.8124   13.7078  -32.2466 C   0  0  0  0  0  0  0  0  0  0  0  0
  -23.6776   14.3978  -31.0500 C   0  0  0  0  0  0  0  0  0  0  0  0
  -24.7758   15.1154  -30.4351 C   0  0  0  0  0  0  0  0  0  0  0  0
  -24.5059   16.2379  -29.6918 C   0  0  0  0  0  0  0  0  0  0  0  0
  -25.5332   16.9524  -29.0871 C   0  0  0  0  0  0  0  0  0  0  0  0
  -26.8329   16.5258  -29.2382 C   0  0  0  0  0  0  0  0  0  0  0  0
  -27.9051   17.2323  -28.6340 N   0  0  0  0  0  0  0  0  0  0  0  0
  -27.8269   18.4973  -28.5869 N   0  0  0  0  0  0  0  0  0  0  0  0
  -28.9255   19.1892  -27.9700 C   0  0  0  0  0  0  0  0  0  0  0  0
  -30.2244   18.8029  -28.1980 C   0  0  0  0  0  0  0  0  0  0  0  0
  -31.3089   19.4323  -27.6313 C   0  0  0  0  0  0  0  0  0  0  0  0
  -32.9480   18.9146  -27.9438 S   0  0  0  0  0  6  0  0  0  0  0  0
  -33.5600   18.4859  -26.6246 O   0  0  0  0  0  0  0  0  0  0  0  0
  -32.9183   17.7304  -28.8506 O   0  0  0  0  0  0  0  0  0  0  0  0
  -33.8331   20.1412  -28.6394 O   0  0  0  0  0  1  0  0  0  0  0  0
  -31.0530   20.4952  -26.8018 C   0  0  0  0  0  0  0  0  0  0  0  0
  -32.0717   21.1879  -26.1885 C   0  0  0  0  0  0  0  0  0  0  0  0
  -31.8275   22.2568  -25.3532 C   0  0  0  0  0  0  0  0  0  0  0  0
  -30.5361   22.6712  -25.1024 C   0  0  0  0  0  0  0  0  0  0  0  0
  -29.5038   21.9974  -25.7014 C   0  0  0  0  0  0  0  0  0  0  0  0
  -29.7558   20.9254  -26.5388 C   0  0  0  0  0  0  0  0  0  0  0  0
  -28.7044   20.2612  -27.1310 C   0  0  0  0  0  0  0  0  0  0  0  0
  -27.3746   20.6777  -26.8810 N   0  0  0  0  0  0  0  0  0  0  0  0
  -27.1310   15.4039  -29.9779 C   0  0  0  0  0  0  0  0  0  0  0  0
  -26.0847   14.7191  -30.5643 C   0  0  0  0  0  0  0  0  0  0  0  0
  -22.4315   14.3734  -30.4567 C   0  0  0  0  0  0  0  0  0  0  0  0
  -21.3604   13.7012  -31.0116 C   0  0  0  0  0  0  0  0  0  0  0  0
  -19.9798   15.1952  -33.9102 C   0  0  0  0  0  0  0  0  0  0  0  0
  -20.4395   16.3392  -34.5229 C   0  0  0  0  0  0  0  0  0  0  0  0
  -20.1008   17.9460  -33.9221 S   0  0  0  0  0  6  0  0  0  0  0  0
  -21.3886   18.6307  -33.5829 O   0  0  0  0  0  0  0  0  0  0  0  0
  -19.2643   17.8879  -32.6717 O   0  0  0  0  0  0  0  0  0  0  0  0
  -19.2696   18.7637  -35.1507 O   0  0  0  0  0  1  0  0  0  0  0  0
  -21.2130   16.2583  -35.6748 C   0  0  0  0  0  0  0  0  0  0  0  0
  -21.6862   17.3863  -36.3078 C   0  0  0  0  0  0  0  0  0  0  0  0
  -22.4502   17.2912  -37.4455 C   0  0  0  0  0  0  0  0  0  0  0  0
  -22.7266   16.0306  -37.9312 C   0  0  0  0  0  0  0  0  0  0  0  0
  -22.2554   14.8999  -37.3016 C   0  0  0  0  0  0  0  0  0  0  0  0
  -21.4802   14.9823  -36.1479 C   0  0  0  0  0  0  0  0  0  0  0  0
  -25.3163   17.0593  -31.1243 Na  0  0  0  0  0 15  0  0  0  0  0  0
  -25.3163   17.0593  -31.1243 Na  0  0  0  0  0 15  0  0  0  0  0  0
  1  2  1  0
  2  3  2  0
  3  4  1  0
  4  5  2  3
  5  6  1  0
  6  7  2  0
  7  8  1  0
  8  9  2  0
  9 10  1  0
 10 11  2  0
 11 12  1  0
 12 13  2  0
 13 14  1  0
 14 15  2  3
 15 16  1  0
 16 17  2  0
 17 18  1  0
 18 19  1  0
 19 20  2  0
 19 21  2  0
 19 22  1  0
 18 23  2  0
 23 24  1  0
 24 25  2  0
 25 26  1  0
 26 27  2  0
 27 28  1  0
 28 29  2  0
 29 30  1  0
 13 31  1  0
 31 32  2  0
  9 33  1  0
 33 34  2  0
  3 35  1  0
 35 36  2  0
 36 37  1  0
 37 38  2  0
 37 39  2  0
 37 40  1  0
 36 41  1  0
 41 42  2  0
 42 43  1  0
 43 44  2  0
 44 45  1  0
 45 46  2  0
 46  2  1  0
 34  6  1  0
 46 41  1  0
 32 10  1  0
 29 16  1  0
 28 23  1  0
M  CHG  4  22  -1  40  -1  47   1  48   1
M  END
$$$$
