
     RDKit          3D

 15 15  0  0  0  0  0  0  0  0999 V2000
  -31.5125   19.0679  -29.3728 C   0  0  0  0  0  0  0  0  0  0  0  0
  -30.2865   19.7270  -29.9799 C   0  0  1  0  0  0  0  0  0  0  0  0
  -29.9900   18.9808  -31.2021 N   0  0  0  0  0  0  0  0  0  0  0  0
  -30.4945   21.1394  -30.3068 C   0  0  0  0  0  0  0  0  0  0  0  0
  -30.9900   21.9352  -29.4390 O   0  0  0  0  0  0  0  0  0  0  0  0
  -30.1791   21.6806  -31.5249 O   0  0  0  0  0  0  0  0  0  0  0  0
  -29.1697   19.5891  -29.0158 C   0  0  0  0  0  0  0  0  0  0  0  0
  -27.9360   20.1749  -29.2555 C   0  0  0  0  0  0  0  0  0  0  0  0
  -26.9199   20.0131  -28.3462 C   0  0  0  0  0  0  0  0  0  0  0  0
  -27.0435   19.2894  -27.1795 C   0  0  0  0  0  0  0  0  0  0  0  0
  -25.9219   19.1573  -26.2552 C   0  0  0  0  0  0  0  0  0  0  0  0
  -24.8298   19.7272  -26.4968 O   0  0  0  0  0  0  0  0  0  0  0  0
  -26.0199   18.4121  -25.0991 O   0  0  0  0  0  0  0  0  0  0  0  0
  -28.2695   18.7154  -26.9558 C   0  0  0  0  0  0  0  0  0  0  0  0
  -29.3262   18.8637  -27.8676 C   0  0  0  0  0  0  0  0  0  0  0  0
  2  1  1  1
  2  3  1  0
  2  4  1  0
  4  5  2  0
  4  6  1  0
  2  7  1  0
  7  8  2  0
  8  9  1  0
  9 10  2  0
 10 11  1  0
 11 12  2  0
 11 13  1  0
 10 14  1  0
 14 15  2  0
 15  7  1  0
M  END
$$$$
