
     RDKit          3D

 29 33  0  0  0  0  0  0  0  0999 V2000
  -22.8278   22.4572  -38.8531 C   0  0  0  0  0  0  0  0  0  0  0  0
  -23.1097   21.7030  -40.0969 C   0  0  0  0  0  0  0  0  0  0  0  0
  -24.2095   21.9141  -40.6731 O   0  0  0  0  0  0  0  0  0  0  0  0
  -22.2189   20.7874  -40.6399 O   0  0  0  0  0  0  0  0  0  0  0  0
  -21.3143   20.1498  -39.7939 C   0  0  1  0  0  0  0  0  0  0  0  0
  -20.5232   21.0693  -38.9283 C   0  0  0  0  0  0  0  0  0  0  0  0
  -19.4019   20.2596  -38.2787 C   0  0  0  0  0  0  0  0  0  0  0  0
  -19.9572   19.1790  -37.3905 C   0  0  1  0  0  0  0  0  0  0  0  0
  -20.6548   19.8336  -36.1979 C   0  0  0  0  0  0  0  0  0  0  0  0
  -20.9150   18.3938  -38.2138 C   0  0  0  0  0  0  0  0  0  0  0  0
  -20.8413   17.0911  -38.3926 C   0  0  0  0  0  0  0  0  0  0  0  0
  -19.7734   16.2670  -37.7774 C   0  0  0  0  0  0  0  0  0  0  0  0
  -19.3528   16.9512  -36.5058 C   0  0  1  0  0  0  0  0  0  0  0  0
  -18.2202   16.2319  -35.8769 C   0  0  2  0  0  0  0  0  0  0  0  0
  -18.3844   14.8529  -35.4412 C   0  0  0  0  0  0  0  0  0  0  0  0
  -17.2960   14.7282  -34.4387 C   0  0  0  0  0  0  0  0  0  0  0  0
  -16.9920   15.9113  -33.9314 C   0  0  0  0  0  0  0  0  0  0  0  0
  -15.9456   16.0535  -32.9113 C   0  0  0  0  0  0  0  0  0  0  0  0
  -15.6224   15.0102  -32.0508 C   0  0  0  0  0  0  0  0  0  0  0  0
  -14.6795   15.1606  -31.0655 C   0  0  0  0  0  0  0  0  0  0  0  0
  -14.0480   16.3676  -30.9342 C   0  0  0  0  0  0  0  0  0  0  0  0
  -14.3185   17.3985  -31.7290 N   0  0  0  0  0  0  0  0  0  0  0  0
  -15.2603   17.2223  -32.6996 C   0  0  0  0  0  0  0  0  0  0  0  0
  -17.7978   16.9419  -34.5761 C   0  0  2  0  0  0  0  0  0  0  0  0
  -18.9553   17.2418  -33.6813 C   0  0  0  0  0  0  0  0  0  0  0  0
  -17.0689   18.1457  -35.1034 C   0  0  0  0  0  0  0  0  0  0  0  0
  -18.0893   19.0263  -35.8055 C   0  0  0  0  0  0  0  0  0  0  0  0
  -18.8060   18.3268  -36.9072 C   0  0  2  0  0  0  0  0  0  0  0  0
  -22.0156   19.1370  -38.8770 C   0  0  0  0  0  0  0  0  0  0  0  0
  1  2  1  0
  2  3  2  0
  2  4  1  0
  5  4  1  1
  5  6  1  0
  6  7  1  0
  7  8  1  0
  8  9  1  1
  8 10  1  0
 10 11  2  0
 11 12  1  0
 13 12  1  6
 13 14  1  0
 14 15  1  1
 15 16  1  0
 16 17  2  0
 17 18  1  0
 18 19  2  0
 19 20  1  0
 20 21  2  0
 21 22  1  0
 22 23  2  0
 17 24  1  0
 24 25  1  1
 24 26  1  0
 26 27  1  0
 28 27  1  1
 10 29  1  0
 29  5  1  0
 28  8  1  0
 28 13  1  0
 24 14  1  0
 23 18  1  0
M  END
$$$$
