
     RDKit          3D

 34 37  0  0  0  0  0  0  0  0999 V2000
  -21.9530   18.4047  -40.9705 C   0  0  0  0  0  0  0  0  0  0  0  0
  -21.3489   19.3278  -40.0564 N   0  0  0  0  0  0  0  0  0  0  0  0
  -21.2701   20.6688  -40.5539 C   0  0  0  0  0  0  0  0  0  0  0  0
  -21.8098   19.2157  -38.7134 C   0  0  0  0  0  0  0  0  0  0  0  0
  -20.7436   19.5334  -37.6906 C   0  0  0  0  0  0  0  0  0  0  0  0
  -20.0413   18.3624  -37.2345 N   0  0  0  0  0  0  0  0  0  0  0  0
  -20.5504   17.0409  -37.3108 C   0  0  0  0  0  0  0  0  0  0  0  0
  -21.0252   16.6440  -38.4005 O   0  0  0  0  0  0  0  0  0  0  0  0
  -20.5507   16.1431  -36.2134 N   0  0  0  0  0  0  0  0  0  0  0  0
  -20.4706   16.6874  -34.8825 C   0  0  0  0  0  0  0  0  0  0  0  0
  -19.1066   16.6040  -34.2717 C   0  0  1  0  0  0  0  0  0  0  0  0
  -18.0357   16.0837  -35.1681 C   0  0  0  0  0  0  0  0  0  0  0  0
  -16.7047   16.3580  -34.4621 C   0  0  0  0  0  0  0  0  0  0  0  0
  -16.8886   16.3525  -32.9357 C   0  0  2  0  0  0  0  0  0  0  0  0
  -17.8501   17.4310  -32.6055 C   0  0  2  0  0  0  0  0  0  0  0  0
  -18.6804   17.7716  -33.6916 O   0  0  0  0  0  0  0  0  0  0  0  0
  -17.3256   18.6268  -31.9374 C   0  0  0  0  0  0  0  0  0  0  0  0
  -17.9794   19.8685  -32.0484 C   0  0  0  0  0  0  0  0  0  0  0  0
  -17.4987   20.9808  -31.3999 C   0  0  0  0  0  0  0  0  0  0  0  0
  -18.2209   22.2943  -31.5417 C   0  0  0  0  0  0  0  0  0  0  0  0
  -17.6249   22.9579  -32.6197 F   0  0  0  0  0  0  0  0  0  0  0  0
  -19.5199   22.0815  -31.8782 F   0  0  0  0  0  0  0  0  0  0  0  0
  -18.0203   23.0448  -30.4249 F   0  0  0  0  0  0  0  0  0  0  0  0
  -16.3612   20.8665  -30.6336 C   0  0  0  0  0  0  0  0  0  0  0  0
  -15.7199   19.6484  -30.5252 C   0  0  0  0  0  0  0  0  0  0  0  0
  -16.1908   18.5203  -31.1724 C   0  0  0  0  0  0  0  0  0  0  0  0
  -15.5506   17.2601  -31.0990 N   0  0  0  0  0  0  0  0  0  0  0  0
  -15.5502   16.4151  -32.3079 C   0  0  1  0  0  0  0  0  0  0  0  0
  -14.8824   15.1429  -32.0165 C   0  0  0  0  0  0  0  0  0  0  0  0
  -15.3524   14.2048  -31.1626 C   0  0  0  0  0  0  0  0  0  0  0  0
  -14.6071   13.0342  -30.9693 C   0  0  0  0  0  0  0  0  0  0  0  0
  -13.4180   12.8303  -31.6299 C   0  0  0  0  0  0  0  0  0  0  0  0
  -12.9417   13.7865  -32.4993 C   0  0  0  0  0  0  0  0  0  0  0  0
  -13.6667   14.9360  -32.6935 C   0  0  0  0  0  0  0  0  0  0  0  0
  1  2  1  0
  2  3  1  0
  2  4  1  0
  4  5  1  0
  5  6  1  0
  6  7  1  0
  7  8  2  0
  7  9  1  0
  9 10  1  0
 11 10  1  6
 11 12  1  0
 12 13  1  0
 14 13  1  6
 14 15  1  0
 15 16  1  6
 15 17  1  0
 17 18  2  0
 18 19  1  0
 19 20  1  0
 20 21  1  0
 20 22  1  0
 20 23  1  0
 19 24  2  0
 24 25  1  0
 25 26  2  0
 26 27  1  0
 27 28  1  0
 28 29  1  1
 29 30  2  0
 30 31  1  0
 31 32  2  0
 32 33  1  0
 33 34  2  0
 16 11  1  0
 26 17  1  0
 34 29  1  0
 28 14  1  0
M  END
$$$$
