
     RDKit          3D

 32 35  0  0  0  0  0  0  0  0999 V2000
  -20.8306   37.0428  -28.9313 C   0  0  0  0  0  0  0  0  0  0  0  0
  -21.4071   38.0683  -27.9709 C   0  0  0  0  0  0  0  0  0  0  0  0
  -22.9216   37.9820  -28.0336 C   0  0  0  0  0  0  0  0  0  0  0  0
  -20.9970   37.6911  -26.6443 N   0  0  0  0  0  0  0  0  0  0  0  0
  -19.5833   37.9774  -26.4845 C   0  0  0  0  0  0  0  0  0  0  0  0
  -19.3502   39.1222  -25.5317 C   0  0  1  0  0  0  0  0  0  0  0  0
  -18.9334   38.6078  -24.2337 C   0  0  0  0  0  0  0  0  0  0  0  0
  -18.6278   37.3393  -24.2398 O   0  0  0  0  0  0  0  0  0  0  0  0
  -18.8028   39.2176  -22.9932 N   0  0  0  0  0  0  0  0  0  0  0  0
  -18.0170   38.5043  -21.9575 C   0  0  0  0  0  0  0  0  0  0  0  0
  -16.9172   39.3803  -21.4058 C   0  0  0  0  0  0  0  0  0  0  0  0
  -17.4942   40.5780  -20.8821 N   0  0  0  0  0  0  0  0  0  0  0  0
  -17.3125   41.1289  -19.5998 C   0  0  0  0  0  0  0  0  0  0  0  0
  -17.4378   40.3809  -18.4901 N   0  0  0  0  0  0  0  0  0  0  0  0
  -17.2705   40.8793  -17.2566 C   0  0  0  0  0  0  0  0  0  0  0  0
  -16.9660   42.1768  -17.1275 N   0  0  0  0  0  0  0  0  0  0  0  0
  -16.8170   43.0196  -18.1923 C   0  0  0  0  0  0  0  0  0  0  0  0
  -16.9994   42.4591  -19.4461 C   0  0  0  0  0  0  0  0  0  0  0  0
  -16.7910   43.5035  -20.4503 C   0  0  2  0  0  0  0  0  0  0  0  0
  -15.4824   43.3484  -21.1925 C   0  0  0  0  0  0  0  0  0  0  0  0
  -16.8901   44.7899  -19.7045 C   0  0  0  0  0  0  0  0  0  0  0  0
  -16.4876   44.4627  -18.2706 C   0  0  1  0  0  0  0  0  0  0  0  0
  -17.1463   45.2314  -17.3500 O   0  0  0  0  0  0  0  0  0  0  0  0
  -18.3604   41.3270  -21.7700 C   0  0  0  0  0  0  0  0  0  0  0  0
  -19.3356   40.4759  -22.5489 C   0  0  0  0  0  0  0  0  0  0  0  0
  -18.5815   40.2340  -26.0895 C   0  0  0  0  0  0  0  0  0  0  0  0
  -19.1305   41.4782  -26.2221 C   0  0  0  0  0  0  0  0  0  0  0  0
  -18.3993   42.5352  -26.7597 C   0  0  0  0  0  0  0  0  0  0  0  0
  -17.0991   42.3240  -27.1652 C   0  0  0  0  0  0  0  0  0  0  0  0
  -16.1818   43.6694  -27.8447 Cl  0  0  0  0  0  0  0  0  0  0  0  0
  -16.5263   41.0907  -27.0437 C   0  0  0  0  0  0  0  0  0  0  0  0
  -17.2769   40.0643  -26.5074 C   0  0  0  0  0  0  0  0  0  0  0  0
  1  2  1  0
  2  3  1  0
  2  4  1  0
  4  5  1  0
  6  5  1  6
  6  7  1  0
  7  8  2  0
  7  9  1  0
  9 10  1  0
 10 11  1  0
 11 12  1  0
 12 13  1  0
 13 14  2  0
 14 15  1  0
 15 16  2  0
 16 17  1  0
 17 18  2  0
 18 19  1  0
 19 20  1  1
 19 21  1  0
 21 22  1  0
 22 23  1  1
 12 24  1  0
 24 25  1  0
  6 26  1  0
 26 27  2  0
 27 28  1  0
 28 29  2  0
 29 30  1  0
 29 31  1  0
 31 32  2  0
 25  9  1  0
 32 26  1  0
 18 13  1  0
 22 17  1  0
M  END
$$$$
