
     RDKit          3D

 17 19  0  0  0  0  0  0  0  0999 V2000
  -23.2338   31.7101  -22.6528 C   0  0  0  0  0  0  0  0  0  0  0  0
  -22.1954   32.6544  -22.4824 O   0  0  0  0  0  0  0  0  0  0  0  0
  -20.9003   32.1751  -22.3612 C   0  0  0  0  0  0  0  0  0  0  0  0
  -20.6372   30.9456  -22.3326 O   0  0  0  0  0  0  0  0  0  0  0  0
  -19.7711   33.1106  -22.2604 C   0  0  0  0  0  0  0  0  0  0  0  0
  -19.9556   34.4760  -22.2769 C   0  0  0  0  0  0  0  0  0  0  0  0
  -18.8602   35.3114  -22.1791 C   0  0  0  0  0  0  0  0  0  0  0  0
  -17.5683   34.8235  -22.0638 C   0  0  0  0  0  0  0  0  0  0  0  0
  -17.4347   33.4488  -22.0518 C   0  0  0  0  0  0  0  0  0  0  0  0
  -18.5102   32.6465  -22.1478 N   0  0  0  0  0  0  0  0  0  0  0  0
  -16.7122   35.8580  -21.9873 N   0  0  0  0  0  0  0  0  0  0  0  0
  -17.3783   37.0283  -22.0468 C   0  0  0  0  0  0  0  0  0  0  0  0
  -17.0508   38.3549  -22.0176 C   0  0  0  0  0  0  0  0  0  0  0  0
  -18.0281   39.3162  -22.1049 C   0  0  0  0  0  0  0  0  0  0  0  0
  -19.3725   39.0122  -22.2249 C   0  0  0  0  0  0  0  0  0  0  0  0
  -19.6999   37.6728  -22.2541 C   0  0  0  0  0  0  0  0  0  0  0  0
  -18.7167   36.6875  -22.1663 C   0  0  0  0  0  0  0  0  0  0  0  0
  1  2  1  0
  2  3  1  0
  3  4  2  0
  3  5  1  0
  5  6  2  0
  6  7  1  0
  7  8  2  0
  8  9  1  0
  9 10  2  0
  8 11  1  0
 11 12  1  0
 12 13  2  0
 13 14  1  0
 14 15  2  0
 15 16  1  0
 16 17  2  0
 10  5  1  0
 17 12  1  0
 17  7  1  0
M  END
$$$$
