
     RDKit          3D

 29 33  0  0  0  0  0  0  0  0999 V2000
  -20.1169   45.0784  -24.1290 C   0  0  0  0  0  0  0  0  0  0  0  0
  -19.0942   44.0670  -24.3247 N   0  0  0  0  0  0  0  0  0  0  0  0
  -18.0144   44.1489  -25.0994 N   0  0  0  0  0  0  0  0  0  0  0  0
  -17.3048   43.0160  -25.0221 C   0  0  0  0  0  0  0  0  0  0  0  0
  -17.9428   42.1518  -24.1612 C   0  0  0  0  0  0  0  0  0  0  0  0
  -17.6855   40.8764  -23.7066 C   0  0  0  0  0  0  0  0  0  0  0  0
  -18.5267   40.2076  -22.8043 C   0  0  0  0  0  0  0  0  0  0  0  0
  -18.2080   38.8828  -22.3214 C   0  0  0  0  0  0  0  0  0  0  0  0
  -17.5477   38.7510  -21.0853 C   0  0  0  0  0  0  0  0  0  0  0  0
  -17.2348   37.5605  -20.5649 N   0  0  0  0  0  0  0  0  0  0  0  0
  -17.5521   36.4374  -21.2278 C   0  0  0  0  0  0  0  0  0  0  0  0
  -17.2083   35.1934  -20.6514 N   0  0  0  0  0  0  0  0  0  0  0  0
  -18.1944   36.5409  -22.4322 C   0  0  0  0  0  0  0  0  0  0  0  0
  -18.6031   35.0777  -23.2846 Cl  0  0  0  0  0  0  0  0  0  0  0  0
  -18.5352   37.7676  -23.0039 C   0  0  0  0  0  0  0  0  0  0  0  0
  -19.1786   37.7971  -24.2522 N   0  0  0  0  0  0  0  0  0  0  0  0
  -20.6352   38.0414  -24.1865 C   0  0  0  0  0  0  0  0  0  0  0  0
  -21.1870   37.7536  -25.5644 C   0  0  0  0  0  0  0  0  0  0  0  0
  -20.5799   38.7495  -26.5200 C   0  0  0  0  0  0  0  0  0  0  0  0
  -21.1825   38.5037  -27.8902 C   0  0  0  0  0  0  0  0  0  0  0  0
  -22.5845   39.0683  -27.7155 C   0  0  0  0  0  0  0  0  0  0  0  0
  -22.4210   40.1288  -26.7288 N   0  0  0  0  0  0  0  0  0  0  0  0
  -21.0791   40.1039  -26.2139 C   0  0  0  0  0  0  0  0  0  0  0  0
  -20.5254   41.0744  -25.6387 O   0  0  0  0  0  0  0  0  0  0  0  0
  -19.0741   38.6835  -26.5300 C   0  0  0  0  0  0  0  0  0  0  0  0
  -18.5542   37.6530  -25.5457 C   0  0  0  0  0  0  0  0  0  0  0  0
  -19.6338   40.9072  -22.3958 C   0  0  0  0  0  0  0  0  0  0  0  0
  -19.9061   42.2053  -22.8522 C   0  0  0  0  0  0  0  0  0  0  0  0
  -19.0621   42.8384  -23.7394 C   0  0  0  0  0  0  0  0  0  0  0  0
  1  2  1  0
  2  3  1  0
  3  4  2  0
  4  5  1  0
  5  6  2  0
  6  7  1  0
  7  8  1  0
  8  9  2  0
  9 10  1  0
 10 11  2  0
 11 12  1  0
 11 13  1  0
 13 14  1  0
 13 15  2  0
 15 16  1  0
 16 17  1  0
 17 18  1  0
 18 19  1  0
 19 20  1  0
 20 21  1  0
 21 22  1  0
 22 23  1  0
 23 24  2  0
 19 25  1  0
 25 26  1  0
  7 27  2  0
 27 28  1  0
 28 29  2  0
 29  2  1  0
 29  5  1  0
 15  8  1  0
 26 16  1  0
 23 19  1  0
M  END
$$$$
