
     RDKit          3D

 18 18  0  0  0  0  0  0  0  0999 V2000
  -24.6706   25.3217  -38.6352 C   0  0  0  0  0  0  0  0  0  0  0  0
  -24.1755   24.3634  -37.5599 C   0  0  0  0  0  0  0  0  0  0  0  0
  -25.4561   23.6638  -37.0637 C   0  0  0  0  0  0  0  0  0  0  0  0
  -23.5666   25.0881  -36.4134 C   0  0  0  0  0  0  0  0  0  0  0  0
  -23.2794   23.3484  -38.1781 C   0  0  0  0  0  0  0  0  0  0  0  0
  -22.8588   23.4351  -39.5000 C   0  0  0  0  0  0  0  0  0  0  0  0
  -22.0345   22.5119  -40.0989 C   0  0  0  0  0  0  0  0  0  0  0  0
  -21.6443   22.6447  -41.5195 C   0  0  0  0  0  0  0  0  0  0  0  0
  -21.5471   21.6508  -42.3460 C   0  0  0  0  0  0  0  0  0  0  0  0
  -21.1344   21.9443  -43.7313 C   0  0  0  0  0  0  0  0  0  0  0  0
  -20.8174   22.1481  -44.7743 N   0  0  0  0  0  0  0  0  0  0  0  0
  -21.8235   20.3208  -41.9455 C   0  0  0  0  0  0  0  0  0  0  0  0
  -22.0459   19.2297  -41.5995 N   0  0  0  0  0  0  0  0  0  0  0  0
  -21.6029   21.4424  -39.3453 C   0  0  0  0  0  0  0  0  0  0  0  0
  -21.9969   21.3075  -38.0085 C   0  0  0  0  0  0  0  0  0  0  0  0
  -21.3985   19.8248  -36.9751 Br  0  0  0  0  0  0  0  0  0  0  0  0
  -22.8263   22.2688  -37.4651 C   0  0  0  0  0  0  0  0  0  0  0  0
  -23.2001   22.1046  -36.1258 O   0  0  0  0  0  0  0  0  0  0  0  0
  1  2  1  0
  2  3  1  0
  2  4  1  0
  2  5  1  0
  5  6  2  0
  6  7  1  0
  7  8  1  0
  8  9  2  3
  9 10  1  0
 10 11  3  0
  9 12  1  0
 12 13  3  0
  7 14  2  0
 14 15  1  0
 15 16  1  0
 15 17  2  0
 17 18  1  0
 17  5  1  0
M  END
$$$$
