
     RDKit          3D

 13 14  0  0  0  0  0  0  0  0999 V2000
  -27.8235   21.8097  -27.6284 N   0  0  0  0  0  0  0  0  0  0  0  0
  -28.1807   20.9297  -26.7633 C   0  0  0  0  0  0  0  0  0  0  0  0
  -28.1282   21.3042  -25.3884 N   0  0  0  0  0  0  0  0  0  0  0  0
  -28.6083   19.6393  -27.1799 N   0  0  0  0  0  0  0  0  0  0  0  0
  -28.5912   19.3502  -28.5797 C   0  0  0  0  0  0  0  0  0  0  0  0
  -29.3744   18.1611  -29.0012 C   0  0  0  0  0  0  0  0  0  0  0  0
  -30.2744   17.6057  -27.9841 C   0  0  0  0  0  0  0  0  0  0  0  0
  -31.3173   16.7951  -28.4304 C   0  0  0  0  0  0  0  0  0  0  0  0
  -32.2216   16.2229  -27.5424 C   0  0  0  0  0  0  0  0  0  0  0  0
  -32.0687   16.4731  -26.1949 C   0  0  0  0  0  0  0  0  0  0  0  0
  -31.0214   17.2862  -25.7539 C   0  0  0  0  0  0  0  0  0  0  0  0
  -30.1314   17.8488  -26.6343 C   0  0  0  0  0  0  0  0  0  0  0  0
  -29.0330   18.7037  -26.1541 C   0  0  0  0  0  0  0  0  0  0  0  0
  1  2  2  0
  2  3  1  0
  2  4  1  0
  4  5  1  0
  5  6  1  0
  6  7  1  0
  7  8  2  0
  8  9  1  0
  9 10  2  0
 10 11  1  0
 11 12  2  0
 12 13  1  0
 13  4  1  0
 12  7  1  0
M  END
$$$$
