
     RDKit          3D

 47 47  0  0  0  0  0  0  0  0999 V2000
  -23.5549   14.3241  -40.2827 C   0  0  0  0  0  0  0  0  0  0  0  0
  -22.8942   15.5203  -39.9339 O   0  0  0  0  0  0  0  0  0  0  0  0
  -22.9113   15.9380  -38.6255 C   0  0  0  0  0  0  0  0  0  0  0  0
  -23.4374   15.2161  -37.7537 O   0  0  0  0  0  0  0  0  0  0  0  0
  -22.3163   17.2282  -38.2492 C   0  0  0  0  0  0  0  0  0  0  0  0
  -22.6735   17.7333  -36.9009 C   0  0  0  0  0  0  0  0  0  0  0  0
  -21.8069   18.8974  -36.4410 C   0  0  2  0  0  0  0  0  0  0  0  0
  -22.1398   19.2376  -35.0502 N   0  0  0  0  0  0  0  0  0  0  0  0
  -21.2556   18.7805  -34.0261 C   0  0  0  0  0  0  0  0  0  0  0  0
  -20.0199   18.6379  -34.3293 O   0  0  0  0  0  0  0  0  0  0  0  0
  -21.6771   18.4649  -32.6598 C   0  0  2  0  0  0  0  0  0  0  0  0
  -22.6902   19.5218  -32.2177 C   0  0  0  0  0  0  0  0  0  0  0  0
  -22.3833   19.8736  -30.8180 C   0  0  0  0  0  0  0  0  0  0  0  0
  -22.0576   18.9759  -30.0144 O   0  0  0  0  0  0  0  0  0  0  0  0
  -22.4454   21.1766  -30.3749 O   0  0  0  0  0  0  0  0  0  0  0  0
  -21.7742   22.2177  -31.0525 C   0  0  0  0  0  0  0  0  0  0  0  0
  -20.5574   18.4008  -31.7810 N   0  0  0  0  0  0  0  0  0  0  0  0
  -19.7732   17.1853  -31.6711 C   0  0  0  0  0  0  0  0  0  0  0  0
  -20.3833   16.0954  -31.6009 O   0  0  0  0  0  0  0  0  0  0  0  0
  -18.4176   17.2771  -31.6488 O   0  0  0  0  0  0  0  0  0  0  0  0
  -17.5575   16.2061  -31.8367 C   0  0  0  0  0  0  0  0  0  0  0  0
  -16.6564   15.9587  -30.6989 C   0  0  0  0  0  0  0  0  0  0  0  0
  -15.5951   15.0853  -30.8077 C   0  0  0  0  0  0  0  0  0  0  0  0
  -14.7274   14.8762  -29.7319 C   0  0  0  0  0  0  0  0  0  0  0  0
  -14.9406   15.5582  -28.5444 C   0  0  0  0  0  0  0  0  0  0  0  0
  -15.9898   16.4322  -28.4157 C   0  0  0  0  0  0  0  0  0  0  0  0
  -16.8424   16.6231  -29.5049 C   0  0  0  0  0  0  0  0  0  0  0  0
  -22.1074   20.0513  -37.3465 C   0  0  0  0  0  0  0  0  0  0  0  0
  -21.9598   19.9859  -38.5949 O   0  0  0  0  0  0  0  0  0  0  0  0
  -22.5765   21.2689  -36.7885 N   0  0  0  0  0  0  0  0  0  0  0  0
  -23.2480   22.2723  -37.5597 C   0  0  2  0  0  0  0  0  0  0  0  0
  -22.8301   22.2986  -38.9660 C   0  0  0  0  0  0  0  0  0  0  0  0
  -23.7047   22.1077  -39.8511 O   0  0  0  0  0  0  0  0  0  0  0  0
  -21.4763   22.5323  -39.3703 N   0  0  0  0  0  0  0  0  0  0  0  0
  -21.0986   22.5737  -40.7485 C   0  0  1  0  0  0  0  0  0  0  0  0
  -20.0048   23.5297  -41.0935 C   0  0  0  0  0  0  0  0  0  0  0  0
  -19.8328   23.7113  -42.5448 C   0  0  0  0  0  0  0  0  0  0  0  0
  -20.1131   22.7765  -43.3334 O   0  0  0  0  0  0  0  0  0  0  0  0
  -19.3597   24.9169  -43.0674 O   0  0  0  0  0  0  0  0  0  0  0  0
  -18.5393   24.8709  -44.1989 C   0  0  0  0  0  0  0  0  0  0  0  0
  -20.7780   21.2141  -41.2396 C   0  0  0  0  0  0  0  0  0  0  0  0
  -19.7492   20.6853  -40.8163 O   0  0  0  0  0  0  0  0  0  0  0  0
  -21.6002   20.4606  -42.1924 C   0  0  0  0  0  0  0  0  0  0  0  0
  -20.9389   20.2516  -43.3858 F   0  0  0  0  0  0  0  0  0  0  0  0
  -23.0650   23.5927  -36.8404 C   0  0  0  0  0  0  0  0  0  0  0  0
  -23.8562   23.4686  -35.5342 C   0  0  0  0  0  0  0  0  0  0  0  0
  -21.6145   23.7809  -36.4106 C   0  0  0  0  0  0  0  0  0  0  0  0
  1  2  1  0
  2  3  1  0
  3  4  2  0
  3  5  1  0
  5  6  1  0
  7  6  1  6
  7  8  1  0
  8  9  1  0
  9 10  2  0
  9 11  1  0
 11 12  1  1
 12 13  1  0
 13 14  2  0
 13 15  1  0
 15 16  1  0
 11 17  1  0
 17 18  1  0
 18 19  2  0
 18 20  1  0
 20 21  1  0
 21 22  1  0
 22 23  2  0
 23 24  1  0
 24 25  2  0
 25 26  1  0
 26 27  2  0
  7 28  1  0
 28 29  2  0
 28 30  1  0
 31 30  1  1
 31 32  1  0
 32 33  2  0
 32 34  1  0
 34 35  1  0
 35 36  1  1
 36 37  1  0
 37 38  2  0
 37 39  1  0
 39 40  1  0
 35 41  1  0
 41 42  2  0
 41 43  1  0
 43 44  1  0
 31 45  1  0
 45 46  1  0
 45 47  1  0
 27 22  1  0
M  END
$$$$
