
     RDKit          3D

 30 33  0  0  0  0  0  0  0  0999 V2000
  -21.3391   30.7930  -17.2985 C   0  0  0  0  0  0  0  0  0  0  0  0
  -20.2246   30.7450  -18.1889 O   0  0  0  0  0  0  0  0  0  0  0  0
  -20.1946   31.5798  -19.2983 C   0  0  0  0  0  0  0  0  0  0  0  0
  -21.2339   32.4553  -19.5359 C   0  0  0  0  0  0  0  0  0  0  0  0
  -21.1852   33.2892  -20.6609 C   0  0  0  0  0  0  0  0  0  0  0  0
  -20.1171   33.2473  -21.5304 C   0  0  0  0  0  0  0  0  0  0  0  0
  -20.0754   34.2824  -22.9081 S   0  0  0  0  0  6  0  0  0  0  0  0
  -18.7904   34.1441  -23.6726 O   0  0  0  0  0  0  0  0  0  0  0  0
  -21.1951   33.8456  -23.8414 O   0  0  0  0  0  0  0  0  0  0  0  0
  -20.3134   35.9321  -22.5554 N   0  0  0  0  0  0  0  0  0  0  0  0
  -19.5181   36.4148  -21.4602 C   0  0  0  0  0  0  0  0  0  0  0  0
  -19.4775   37.9433  -21.6083 C   0  0  0  0  0  0  0  0  0  0  0  0
  -18.4714   38.2303  -22.5896 N   0  0  0  0  0  0  0  0  0  0  0  0
  -16.9791   38.4970  -21.8174 S   0  0  0  0  0  6  0  0  0  0  0  0
  -16.7819   37.4865  -20.6959 O   0  0  0  0  0  0  0  0  0  0  0  0
  -15.8082   38.3092  -22.7399 O   0  0  0  0  0  0  0  0  0  0  0  0
  -16.9786   40.0725  -21.0890 C   0  0  0  0  0  0  0  0  0  0  0  0
  -17.7565   40.3326  -19.9988 C   0  0  0  0  0  0  0  0  0  0  0  0
  -17.7664   41.5991  -19.4112 C   0  0  0  0  0  0  0  0  0  0  0  0
  -16.9681   42.5701  -19.9679 C   0  0  0  0  0  0  0  0  0  0  0  0
  -16.1709   42.3457  -21.0659 C   0  0  0  0  0  0  0  0  0  0  0  0
  -16.1786   41.0887  -21.6271 C   0  0  0  0  0  0  0  0  0  0  0  0
  -15.3737   43.3583  -21.6021 O   0  0  0  0  0  0  0  0  0  0  0  0
  -15.0630   44.4722  -20.7551 C   0  0  0  0  0  0  0  0  0  0  0  0
  -16.3410   44.9269  -20.0606 C   0  0  0  0  0  0  0  0  0  0  0  0
  -16.9581   43.8395  -19.4036 O   0  0  0  0  0  0  0  0  0  0  0  0
  -18.4533   37.1840  -23.5624 C   0  0  0  0  0  0  0  0  0  0  0  0
  -19.8930   36.6887  -23.7406 C   0  0  0  0  0  0  0  0  0  0  0  0
  -19.0760   32.3766  -21.3006 C   0  0  0  0  0  0  0  0  0  0  0  0
  -19.1318   31.5479  -20.1763 C   0  0  0  0  0  0  0  0  0  0  0  0
  1  2  1  0
  2  3  1  0
  3  4  2  0
  4  5  1  0
  5  6  2  0
  6  7  1  0
  7  8  2  0
  7  9  2  0
  7 10  1  0
 10 11  1  0
 11 12  1  0
 12 13  1  0
 13 14  1  0
 14 15  2  0
 14 16  2  0
 14 17  1  0
 17 18  2  0
 18 19  1  0
 19 20  2  0
 20 21  1  0
 21 22  2  0
 21 23  1  0
 23 24  1  0
 24 25  1  0
 25 26  1  0
 13 27  1  0
 27 28  1  0
  6 29  1  0
 29 30  2  0
 30  3  1  0
 28 10  1  0
 22 17  1  0
 26 20  1  0
M  END
$$$$
