
     RDKit          3D

  6  5  0  0  0  0  0  0  0  0999 V2000
  -19.4869   33.0093  -22.4564 C   0  0  0  0  0  0  0  0  0  0  0  0
  -19.1396   34.3880  -22.0971 C   0  0  0  0  0  0  0  0  0  0  0  0
  -20.0650   35.1858  -21.8005 O   0  0  0  0  0  0  0  0  0  0  0  0
  -17.7721   34.8707  -22.0694 C   0  0  0  0  0  0  0  0  0  0  0  0
  -17.4549   36.2793  -21.7144 C   0  0  0  0  0  0  0  0  0  0  0  0
  -16.7817   34.1315  -22.3421 O   0  0  0  0  0  0  0  0  0  0  0  0
  1  2  1  0
  2  3  2  0
  2  4  1  0
  4  5  1  0
  4  6  2  0
M  END
$$$$
