
     RDKit          3D

 13 13  0  0  0  0  0  0  0  0999 V2000
  -17.7575   37.2369  -23.6654 N   0  0  0  0  0  0  0  0  0  0  0  0
  -18.1631   37.6086  -22.3284 C   0  0  1  0  0  0  0  0  0  0  0  0
  -17.7972   36.4577  -21.4160 C   0  0  0  0  0  0  0  0  0  0  0  0
  -18.4296   35.2354  -21.8734 N   0  0  0  0  0  0  0  0  0  0  0  0
  -19.6996   34.9220  -21.8826 O   0  0  0  0  0  0  0  0  0  0  0  0
  -19.8598   33.7164  -22.3786 C   0  0  0  0  0  0  0  0  0  0  0  0
  -20.9599   33.0877  -22.5382 O   0  0  0  0  0  0  0  0  0  0  0  0
  -18.6599   33.2068  -22.7117 N   0  0  0  0  0  0  0  0  0  0  0  0
  -17.7689   34.1603  -22.3939 C   0  0  0  0  0  0  0  0  0  0  0  0
  -16.5236   34.0422  -22.5653 O   0  0  0  0  0  0  0  0  0  0  0  0
  -17.4244   38.8470  -21.9756 C   0  0  0  0  0  0  0  0  0  0  0  0
  -16.2633   38.9711  -22.4443 O   0  0  0  0  0  0  0  0  0  0  0  0
  -17.9545   39.8440  -21.1700 O   0  0  0  0  0  0  0  0  0  0  0  0
  2  1  1  6
  2  3  1  0
  3  4  1  0
  4  5  1  0
  5  6  1  0
  6  7  2  0
  6  8  1  0
  8  9  1  0
  9 10  2  0
  2 11  1  0
 11 12  2  0
 11 13  1  0
  9  4  1  0
M  END
$$$$
