
     RDKit          3D

 13 14  0  0  0  0  0  0  0  0999 V2000
  -20.9567   37.3194  -22.7480 O   0  0  0  0  0  0  0  0  0  0  0  0
  -19.7682   37.1511  -22.3452 C   0  0  0  0  0  0  0  0  0  0  0  0
  -18.8855   38.2591  -22.0020 C   0  0  0  0  0  0  0  0  0  0  0  0
  -17.6472   38.0424  -21.5839 C   0  0  0  0  0  0  0  0  0  0  0  0
  -17.1706   36.6621  -21.4693 C   0  0  0  0  0  0  0  0  0  0  0  0
  -15.9995   36.4572  -21.0739 O   0  0  0  0  0  0  0  0  0  0  0  0
  -18.0309   35.5346  -21.8055 C   0  0  0  0  0  0  0  0  0  0  0  0
  -17.5736   34.2338  -21.6948 C   0  0  0  0  0  0  0  0  0  0  0  0
  -16.2747   34.0126  -21.2560 O   0  0  0  0  0  0  0  0  0  0  0  0
  -18.3916   33.1551  -22.0147 C   0  0  0  0  0  0  0  0  0  0  0  0
  -19.6805   33.3753  -22.4501 C   0  0  0  0  0  0  0  0  0  0  0  0
  -20.1130   34.6861  -22.5520 C   0  0  0  0  0  0  0  0  0  0  0  0
  -19.3178   35.7633  -22.2399 C   0  0  0  0  0  0  0  0  0  0  0  0
  1  2  2  0
  2  3  1  0
  3  4  2  0
  4  5  1  0
  5  6  2  0
  5  7  1  0
  7  8  2  0
  8  9  1  0
  8 10  1  0
 10 11  2  0
 11 12  1  0
 12 13  2  0
 13  2  1  0
 13  7  1  0
M  END
$$$$
