
     RDKit          3D

 29 31  0  0  0  0  0  0  0  0999 V2000
    2.2970   20.7087  -19.8569 O   0  0  0  0  0  0  0  0  0  0  0  0
    3.0649   20.0190  -19.0985 C   0  0  0  0  0  0  0  0  0  0  0  0
    2.5962   18.6782  -18.7201 C   0  0  0  0  0  0  0  0  0  0  0  0
    1.3566   18.3468  -18.9225 C   0  0  0  0  0  0  0  0  0  0  0  0
    0.6794   18.1693  -20.1987 C   0  0  0  0  0  0  0  0  0  0  0  0
    1.3655   18.6070  -21.3421 C   0  0  0  0  0  0  0  0  0  0  0  0
    0.7967   18.5017  -22.5712 C   0  0  0  0  0  0  0  0  0  0  0  0
   -0.4622   17.9722  -22.7839 C   0  0  0  0  0  0  0  0  0  0  0  0
   -1.0288   17.8693  -24.0760 N   0  0  0  0  0  4  0  0  0  0  0  0
   -0.2861   17.5733  -25.0223 O   0  0  0  0  0  0  0  0  0  0  0  0
   -2.3406   18.0873  -24.2743 O   0  0  0  0  0  1  0  0  0  0  0  0
   -1.1077   17.5519  -21.6296 C   0  0  0  0  0  0  0  0  0  0  0  0
   -0.5610   17.6447  -20.3718 C   0  0  0  0  0  0  0  0  0  0  0  0
    3.5379   17.7149  -18.1614 C   0  0  0  0  0  0  0  0  0  0  0  0
    4.6121   18.6334  -17.0354 S   0  0  0  0  0  6  0  0  0  0  0  0
    3.7467   19.4175  -16.0938 O   0  0  0  0  0  0  0  0  0  0  0  0
    5.5908   17.7442  -16.3764 O   0  0  0  0  0  0  0  0  0  0  0  0
    5.3874   19.8044  -18.1367 C   0  0  0  0  0  0  0  0  0  0  0  0
    4.3120   20.6271  -18.6920 C   0  0  0  0  0  0  0  0  0  0  0  0
    4.5271   21.9207  -18.8500 C   0  0  0  0  0  0  0  0  0  0  0  0
    3.6656   22.8984  -19.4213 C   0  0  0  0  0  0  0  0  0  0  0  0
    3.1246   22.6181  -20.6837 C   0  0  0  0  0  0  0  0  0  0  0  0
    2.2645   23.5218  -21.2631 C   0  0  0  0  0  0  0  0  0  0  0  0
    1.9167   24.7079  -20.6299 C   0  0  0  0  0  0  0  0  0  0  0  0
    1.0321   25.6248  -21.2499 N   0  0  0  0  0  4  0  0  0  0  0  0
    1.1116   25.7920  -22.4747 O   0  0  0  0  0  0  0  0  0  0  0  0
    0.1041   26.3193  -20.5373 O   0  0  0  0  0  1  0  0  0  0  0  0
    2.4645   24.9581  -19.3856 C   0  0  0  0  0  0  0  0  0  0  0  0
    3.3426   24.0606  -18.7662 C   0  0  0  0  0  0  0  0  0  0  0  0
  1  2  2  0
  2  3  1  0
  3  4  2  0
  4  5  1  0
  5  6  2  0
  6  7  1  0
  7  8  2  0
  8  9  1  0
  9 10  2  0
  9 11  1  0
  8 12  1  0
 12 13  2  0
  3 14  1  0
 14 15  1  0
 15 16  2  0
 15 17  2  0
 15 18  1  0
 18 19  1  0
 19 20  2  0
 20 21  1  0
 21 22  2  0
 22 23  1  0
 23 24  2  0
 24 25  1  0
 25 26  2  0
 25 27  1  0
 24 28  1  0
 28 29  2  0
 19  2  1  0
 29 21  1  0
 13  5  1  0
M  CHG  4   9   1  11  -1  25   1  27  -1
M  END
$$$$
