
     RDKit          3D

 39 42  0  0  0  0  0  0  0  0999 V2000
  -15.9156   39.1329  -22.0989 C   0  0  0  0  0  0  0  0  0  0  0  0
  -17.0470   39.2098  -22.9422 O   0  0  0  0  0  0  0  0  0  0  0  0
  -17.7551   38.0522  -23.1936 C   0  0  0  0  0  0  0  0  0  0  0  0
  -17.3737   36.8276  -22.6341 C   0  0  0  0  0  0  0  0  0  0  0  0
  -18.0836   35.6710  -22.8870 C   0  0  0  0  0  0  0  0  0  0  0  0
  -19.1797   35.7893  -23.7143 C   0  0  0  0  0  0  0  0  0  0  0  0
  -19.5991   36.9653  -24.2903 C   0  0  0  0  0  0  0  0  0  0  0  0
  -18.8677   38.1015  -24.0172 C   0  0  0  0  0  0  0  0  0  0  0  0
  -19.3067   39.3517  -24.6234 C   0  0  0  0  0  0  0  0  0  0  0  0
  -18.6567   40.4096  -24.3917 O   0  0  0  0  0  0  0  0  0  0  0  0
  -20.4839   39.4186  -25.4970 C   0  0  0  0  0  0  0  0  0  0  0  0
  -20.8901   40.6191  -26.0672 C   0  0  0  0  0  0  0  0  0  0  0  0
  -20.1624   41.7507  -25.7957 O   0  0  0  0  0  0  0  0  0  0  0  0
  -21.9854   40.6948  -26.8824 C   0  0  0  0  0  0  0  0  0  0  0  0
  -22.6802   39.5309  -27.1225 C   0  0  0  0  0  0  0  0  0  0  0  0
  -22.3400   38.3228  -26.5985 C   0  0  0  0  0  0  0  0  0  0  0  0
  -23.0251   37.1556  -26.8307 O   0  0  0  0  0  0  0  0  0  0  0  0
  -21.2167   38.2898  -25.7727 C   0  0  0  0  0  0  0  0  0  0  0  0
  -20.7752   37.0341  -25.1636 C   0  0  0  0  0  0  0  0  0  0  0  0
  -21.4398   36.0007  -25.4117 O   0  0  0  0  0  0  0  0  0  0  0  0
  -23.8605   39.6441  -28.0090 C   0  0  0  0  0  0  0  0  0  0  0  0
  -23.4135   40.3847  -29.2501 C   0  0  1  0  0  0  0  0  0  0  0  0
  -22.4775   39.5424  -29.8678 O   0  0  0  0  0  0  0  0  0  0  0  0
  -24.5850   40.5149  -30.1653 C   0  0  0  0  0  0  0  0  0  0  0  0
  -24.6070   39.8130  -31.4741 C   0  0  0  0  0  0  0  0  0  0  0  0
  -25.5348   41.2119  -29.8226 O   0  0  0  0  0  0  0  0  0  0  0  0
  -22.7463   41.6932  -28.9916 C   0  0  0  0  0  0  0  0  0  0  0  0
  -22.4797   41.9243  -27.5226 C   0  0  2  0  0  0  0  0  0  0  0  0
  -21.7730   43.0597  -27.2665 O   0  0  0  0  0  0  0  0  0  0  0  0
  -22.4701   44.0408  -26.5819 C   0  0  1  0  0  0  0  0  0  0  0  0
  -21.7608   44.5636  -25.3577 C   0  0  0  0  0  0  0  0  0  0  0  0
  -21.9557   46.0826  -25.2263 C   0  0  2  0  0  0  0  0  0  0  0  0
  -23.3939   46.2955  -25.0861 N   0  0  0  0  0  0  0  0  0  0  0  0
  -21.3778   46.8145  -26.3948 C   0  0  2  0  0  0  0  0  0  0  0  0
  -22.1660   47.9567  -26.6197 O   0  0  0  0  0  0  0  0  0  0  0  0
  -21.4633   45.8667  -27.5986 C   0  0  2  0  0  0  0  0  0  0  0  0
  -21.6459   46.7613  -28.8127 C   0  0  0  0  0  0  0  0  0  0  0  0
  -22.6240   45.1187  -27.4610 O   0  0  0  0  0  0  0  0  0  0  0  0
  -21.6408   41.9251  -26.5284 Cl  0  0  0  0  0  0  0  0  0  0  0  0
  1  2  1  0
  2  3  1  0
  3  4  2  0
  4  5  1  0
  5  6  2  0
  6  7  1  0
  7  8  2  0
  8  9  1  0
  9 10  2  0
  9 11  1  0
 11 12  2  0
 12 13  1  0
 12 14  1  0
 14 15  2  0
 15 16  1  0
 16 17  1  0
 16 18  2  0
 18 19  1  0
 19 20  2  0
 15 21  1  0
 21 22  1  0
 22 23  1  6
 22 24  1  0
 24 25  1  0
 24 26  2  0
 22 27  1  0
 27 28  1  0
 28 29  1  6
 30 29  1  6
 30 31  1  0
 31 32  1  0
 32 33  1  6
 32 34  1  0
 34 35  1  6
 34 36  1  0
 36 37  1  6
 36 38  1  0
  8  3  1  0
 18 11  1  0
 38 30  1  0
 19  7  1  0
 28 14  1  0
M  END
$$$$
