
     RDKit          3D

 26 28  0  0  0  0  0  0  0  0999 V2000
  -18.5638   16.4576  -32.9824 O   0  0  0  0  0  0  0  0  0  0  0  0
  -17.9775   17.3739  -32.3689 C   0  0  0  0  0  0  0  0  0  0  0  0
  -16.5545   17.3434  -31.9886 C   0  0  0  0  0  0  0  0  0  0  0  0
  -16.1917   16.2863  -31.0456 C   0  0  0  0  0  0  0  0  0  0  0  0
  -16.8018   16.1895  -29.8322 N   0  0  0  0  0  0  0  0  0  0  0  0
  -16.4754   15.2936  -28.9256 N   0  0  0  0  0  0  0  0  0  0  0  0
  -15.5020   14.3921  -29.1304 C   0  0  0  0  0  0  0  0  0  0  0  0
  -15.1833   13.5244  -28.2550 O   0  0  0  0  0  0  0  0  0  0  0  0
  -14.8303   14.4287  -30.3560 C   0  0  0  0  0  0  0  0  0  0  0  0
  -13.8298   13.5048  -30.5947 C   0  0  0  0  0  0  0  0  0  0  0  0
  -13.1779   13.5370  -31.7992 C   0  0  0  0  0  0  0  0  0  0  0  0
  -13.5029   14.4556  -32.7485 C   0  0  0  0  0  0  0  0  0  0  0  0
  -14.5026   15.3746  -32.5035 C   0  0  0  0  0  0  0  0  0  0  0  0
  -15.1843   15.3829  -31.3100 C   0  0  0  0  0  0  0  0  0  0  0  0
  -18.8212   18.5015  -32.0570 N   0  0  0  0  0  0  0  0  0  0  0  0
  -20.1772   18.6116  -32.4285 C   0  0  0  0  0  0  0  0  0  0  0  0
  -20.5592   19.7022  -33.2074 C   0  0  0  0  0  0  0  0  0  0  0  0
  -21.8720   19.9009  -33.5799 C   0  0  0  0  0  0  0  0  0  0  0  0
  -22.8718   19.0019  -33.1818 C   0  0  0  0  0  0  0  0  0  0  0  0
  -24.5363   19.2550  -33.6515 Cl  0  0  0  0  0  0  0  0  0  0  0  0
  -22.4633   17.9346  -32.4118 C   0  0  0  0  0  0  0  0  0  0  0  0
  -23.5368   16.9802  -31.9844 C   0  0  0  0  0  0  0  0  0  0  0  0
  -24.3785   17.6559  -31.0877 F   0  0  0  0  0  0  0  0  0  0  0  0
  -24.2014   16.4971  -33.0769 F   0  0  0  0  0  0  0  0  0  0  0  0
  -22.9814   15.9039  -31.3014 F   0  0  0  0  0  0  0  0  0  0  0  0
  -21.1377   17.7320  -32.0351 C   0  0  0  0  0  0  0  0  0  0  0  0
  1  2  2  0
  2  3  1  0
  3  4  1  0
  4  5  2  0
  5  6  1  0
  6  7  1  0
  7  8  2  0
  7  9  1  0
  9 10  2  0
 10 11  1  0
 11 12  2  0
 12 13  1  0
 13 14  2  0
  2 15  1  0
 15 16  1  0
 16 17  2  0
 17 18  1  0
 18 19  2  0
 19 20  1  0
 19 21  1  0
 21 22  1  0
 22 23  1  0
 22 24  1  0
 22 25  1  0
 21 26  2  0
 14  4  1  0
 26 16  1  0
 14  9  1  0
M  END
$$$$
