
     RDKit          3D

 29 31  0  0  0  0  0  0  0  0999 V2000
  -16.3049   -3.3022  -33.4977 C   0  0  0  0  0  0  0  0  0  0  0  0
  -15.5782   -2.5006  -32.4701 C   0  0  0  0  0  0  0  0  0  0  0  0
  -14.1493   -2.2971  -32.7739 C   0  0  0  0  0  0  0  0  0  0  0  0
  -13.5245   -1.1534  -32.5955 C   0  0  0  0  0  0  0  0  0  0  0  0
  -14.1998    0.0555  -32.0914 C   0  0  0  0  0  0  0  0  0  0  0  0
  -14.4296    0.3167  -30.7692 C   0  0  0  0  0  0  0  0  0  0  0  0
  -15.0453    1.4700  -30.3221 C   0  0  0  0  0  0  0  0  0  0  0  0
  -15.4514    2.4056  -31.2302 C   0  0  0  0  0  0  0  0  0  0  0  0
  -16.0673    3.5599  -30.7811 O   0  0  0  0  0  0  0  0  0  0  0  0
  -15.2296    2.1629  -32.5830 C   0  0  0  0  0  0  0  0  0  0  0  0
  -14.6127    1.0038  -33.0056 C   0  0  0  0  0  0  0  0  0  0  0  0
  -12.0735   -0.9942  -32.8387 C   0  0  0  0  0  0  0  0  0  0  0  0
  -11.6167   -0.7738  -34.1175 C   0  0  0  0  0  0  0  0  0  0  0  0
  -10.2429   -0.6165  -34.3104 C   0  0  0  0  0  0  0  0  0  0  0  0
   -9.3260   -0.6686  -33.3056 C   0  0  0  0  0  0  0  0  0  0  0  0
   -7.9670   -0.5126  -33.5080 O   0  0  0  0  0  0  0  0  0  0  0  0
   -7.0411   -1.4057  -32.9288 C   0  0  0  0  0  0  0  0  0  0  0  0
   -5.8406   -0.5138  -32.5522 C   0  0  0  0  0  0  0  0  0  0  0  0
   -4.7842   -1.4283  -32.2539 N   0  0  0  0  0  0  0  0  0  0  0  0
   -4.7829   -2.6422  -32.9974 C   0  0  0  0  0  0  0  0  0  0  0  0
   -3.5228   -0.8673  -31.9295 C   0  0  0  0  0  0  0  0  0  0  0  0
   -9.8101   -0.8935  -32.0070 C   0  0  0  0  0  0  0  0  0  0  0  0
  -11.1637   -1.0509  -31.7980 C   0  0  0  0  0  0  0  0  0  0  0  0
  -13.4314   -3.4183  -33.3503 C   0  0  0  0  0  0  0  0  0  0  0  0
  -12.9618   -4.4648  -32.5692 C   0  0  0  0  0  0  0  0  0  0  0  0
  -12.3117   -5.5440  -33.1047 C   0  0  0  0  0  0  0  0  0  0  0  0
  -12.1061   -5.6130  -34.4569 C   0  0  0  0  0  0  0  0  0  0  0  0
  -12.5684   -4.5759  -35.2557 C   0  0  0  0  0  0  0  0  0  0  0  0
  -13.2260   -3.4887  -34.6977 C   0  0  0  0  0  0  0  0  0  0  0  0
  1  2  1  0
  2  3  1  0
  3  4  2  0
  4  5  1  0
  5  6  2  0
  6  7  1  0
  7  8  2  0
  8  9  1  0
  8 10  1  0
 10 11  2  0
  4 12  1  0
 12 13  2  0
 13 14  1  0
 14 15  2  0
 15 16  1  0
 16 17  1  0
 17 18  1  0
 18 19  1  0
 19 20  1  0
 19 21  1  0
 15 22  1  0
 22 23  2  0
  3 24  1  0
 24 25  2  0
 25 26  1  0
 26 27  2  0
 27 28  1  0
 28 29  2  0
 11  5  1  0
 23 12  1  0
 29 24  1  0
M  END
$$$$
