
     RDKit          3D

 30 33  0  0  0  0  0  0  0  0999 V2000
  -17.0637   35.0835  -21.1972 C   0  0  0  0  0  0  0  0  0  0  0  0
  -18.1972   34.8702  -21.8712 C   0  0  0  0  0  0  0  0  0  0  0  0
  -19.0261   35.9845  -22.2799 C   0  0  0  0  0  0  0  0  0  0  0  0
  -19.0456   37.1101  -21.5530 C   0  0  0  0  0  0  0  0  0  0  0  0
  -18.8152   38.4207  -22.1238 C   0  0  0  0  0  0  0  0  0  0  0  0
  -18.5116   39.4342  -21.3194 C   0  0  0  0  0  0  0  0  0  0  0  0
  -17.5762   39.3553  -20.2025 C   0  0  0  0  0  0  0  0  0  0  0  0
  -17.0228   40.6483  -19.7297 C   0  0  0  0  0  0  0  0  0  0  0  0
  -17.5036   41.8908  -20.3599 C   0  0  0  0  0  0  0  0  0  0  0  0
  -18.0655   41.7507  -21.7426 C   0  0  1  0  0  0  0  0  0  0  0  0
  -17.0525   41.1937  -22.6599 C   0  0  0  0  0  0  0  0  0  0  0  0
  -19.1886   40.7064  -21.5934 C   0  0  1  0  0  0  0  0  0  0  0  0
  -19.8774   40.8085  -22.9005 C   0  0  0  0  0  0  0  0  0  0  0  0
  -19.9236   42.3273  -23.1283 C   0  0  0  0  0  0  0  0  0  0  0  0
  -18.8760   42.8959  -22.1953 C   0  0  2  0  0  0  0  0  0  0  0  0
  -18.2474   44.0685  -22.8070 C   0  0  2  0  0  0  0  0  0  0  0  0
  -17.0365   44.6359  -22.1133 C   0  0  0  0  0  0  0  0  0  0  0  0
  -19.2016   45.1356  -23.2068 C   0  0  0  0  0  0  0  0  0  0  0  0
  -19.0929   45.7326  -24.3689 C   0  0  0  0  0  0  0  0  0  0  0  0
  -20.1135   46.7298  -24.8641 C   0  0  1  0  0  0  0  0  0  0  0  0
  -19.6683   47.4208  -25.9593 O   0  0  0  0  0  0  0  0  0  0  0  0
  -21.3376   45.9222  -25.2302 C   0  0  0  0  0  0  0  0  0  0  0  0
  -22.0976   45.1738  -24.2187 C   0  0  0  0  0  0  0  0  0  0  0  0
  -22.6442   46.4852  -24.7157 C   0  0  0  0  0  0  0  0  0  0  0  0
  -19.8458   35.8872  -23.4915 C   0  0  0  0  0  0  0  0  0  0  0  0
  -20.0356   34.5162  -24.0275 C   0  0  2  0  0  0  0  0  0  0  0  0
  -21.3011   34.0544  -23.6419 O   0  0  0  0  0  0  0  0  0  0  0  0
  -18.9572   33.5294  -23.7041 C   0  0  0  0  0  0  0  0  0  0  0  0
  -18.6384   33.4953  -22.2238 C   0  0  2  0  0  0  0  0  0  0  0  0
  -19.7802   33.2043  -21.5177 O   0  0  0  0  0  0  0  0  0  0  0  0
  1  2  2  0
  2  3  1  0
  3  4  2  0
  4  5  1  0
  5  6  2  0
  6  7  1  0
  7  8  1  0
  8  9  1  0
  9 10  1  0
 10 11  1  6
 10 12  1  0
 12 13  1  6
 13 14  1  0
 15 14  1  6
 15 16  1  0
 16 17  1  1
 16 18  1  0
 18 19  2  0
 19 20  1  0
 20 21  1  6
 20 22  1  0
 22 23  1  0
 23 24  1  0
  3 25  1  0
 25 26  1  0
 26 27  1  1
 26 28  1  0
 28 29  1  0
 29 30  1  1
 29  2  1  0
 12  6  1  0
 24 22  1  0
 15 10  1  0
M  END
$$$$
