
     RDKit          3D

 24 26  0  0  0  0  0  0  0  0999 V2000
  -30.1886   18.5260  -28.9199 C   0  0  0  0  0  0  0  0  0  0  0  0
  -29.0432   19.5175  -29.1016 C   0  0  2  0  0  0  0  0  0  0  0  0
  -28.0040   19.0275  -28.2841 N   0  0  0  0  0  0  0  0  0  0  0  0
  -26.6639   18.9089  -28.6622 C   0  0  0  0  0  0  0  0  0  0  0  0
  -26.0092   17.9349  -28.1777 N   0  0  0  0  0  0  0  0  0  0  0  0
  -26.0839   17.4545  -26.8945 C   0  0  0  0  0  0  0  0  0  0  0  0
  -26.1896   18.2643  -25.8324 C   0  0  0  0  0  0  0  0  0  0  0  0
  -26.3271   17.7518  -24.5381 C   0  0  0  0  0  0  0  0  0  0  0  0
  -26.3549   16.3891  -24.3505 C   0  0  0  0  0  0  0  0  0  0  0  0
  -26.2491   15.5446  -25.4245 C   0  0  0  0  0  0  0  0  0  0  0  0
  -26.2787   14.1914  -25.2484 N   0  0  0  0  0  0  0  0  0  0  0  0
  -26.1780   13.3608  -26.2971 C   0  0  0  0  0  0  0  0  0  0  0  0
  -26.0428   13.8343  -27.5721 C   0  0  0  0  0  0  0  0  0  0  0  0
  -26.0130   15.1985  -27.7493 C   0  0  0  0  0  0  0  0  0  0  0  0
  -26.1142   16.1109  -26.6898 C   0  0  0  0  0  0  0  0  0  0  0  0
  -26.0340   19.7932  -29.5876 N   0  0  0  0  0  0  0  0  0  0  0  0
  -24.6691   20.0417  -29.4737 C   0  0  0  0  0  0  0  0  0  0  0  0
  -23.5288   20.2335  -29.3899 N   0  0  0  0  0  0  0  0  0  0  0  0
  -29.6126   20.7727  -28.4970 C   0  0  0  0  0  0  0  0  0  0  0  0
  -30.1576   20.8301  -27.2702 C   0  0  0  0  0  0  0  0  0  0  0  0
  -30.6786   22.0613  -26.8451 C   0  0  0  0  0  0  0  0  0  0  0  0
  -30.6353   23.1788  -27.6548 C   0  0  0  0  0  0  0  0  0  0  0  0
  -30.0736   23.0985  -28.9046 C   0  0  0  0  0  0  0  0  0  0  0  0
  -29.5624   21.8776  -29.3129 C   0  0  0  0  0  0  0  0  0  0  0  0
  2  1  1  1
  2  3  1  0
  3  4  1  0
  4  5  2  0
  5  6  1  0
  6  7  2  0
  7  8  1  0
  8  9  2  0
  9 10  1  0
 10 11  2  0
 11 12  1  0
 12 13  2  0
 13 14  1  0
 14 15  2  0
  4 16  1  0
 16 17  1  0
 17 18  3  0
  2 19  1  0
 19 20  2  0
 20 21  1  0
 21 22  2  0
 22 23  1  0
 23 24  2  0
 15  6  1  0
 24 19  1  0
 15 10  1  0
M  END
$$$$
