
     RDKit          3D

 14 14  0  0  0  0  0  0  0  0999 V2000
  -19.4639   38.1768  -24.3396 Cl  0  0  0  0  0  0  0  0  0  0  0  0
  -16.9791   35.2358  -20.6006 Cl  0  0  0  0  0  0  0  0  0  0  0  0
  -17.6098   36.3413  -21.7889 C   0  0  0  0  0  0  0  0  0  0  0  0
  -18.2848   35.9179  -22.9308 C   0  0  0  0  0  0  0  0  0  0  0  0
  -18.7731   36.8011  -23.8530 C   0  0  0  0  0  0  0  0  0  0  0  0
  -18.6022   38.1557  -23.6646 C   0  0  0  0  0  0  0  0  0  0  0  0
  -19.0691   39.1124  -24.5553 O   0  0  0  0  0  0  0  0  0  0  0  0
  -19.7476   38.6500  -25.7002 C   0  0  0  0  0  0  0  0  0  0  0  0
  -20.2064   39.7762  -26.5905 C   0  0  1  0  0  0  0  0  0  0  0  0
  -21.3528   39.2785  -27.4703 C   0  0  0  0  0  0  0  0  0  0  0  0
  -22.2631   40.0675  -26.5865 C   0  0  0  0  0  0  0  0  0  0  0  0
  -21.1095   40.7132  -25.9899 N   0  0  0  0  0  0  0  0  0  0  0  0
  -17.9280   38.5717  -22.5235 C   0  0  0  0  0  0  0  0  0  0  0  0
  -17.4647   37.6762  -21.6439 N   0  0  0  0  0  0  0  0  0  0  0  0
  2  3  1  0
  3  4  2  0
  4  5  1  0
  5  6  2  0
  6  7  1  0
  7  8  1  0
  9  8  1  1
  9 10  1  0
 10 11  1  0
 11 12  1  0
  6 13  1  0
 13 14  2  0
 14  3  1  0
 12  9  1  0
M  END
$$$$
