
     RDKit          3D

 22 24  0  0  0  0  0  0  0  0999 V2000
  -16.8044    2.4077  -30.3120 C   0  0  0  0  0  0  0  0  0  0  0  0
  -15.9016    1.8446  -31.0862 C   0  0  0  0  0  0  0  0  0  0  0  0
  -14.7250    1.1891  -30.4791 C   0  0  0  0  0  0  0  0  0  0  0  0
  -13.8249    0.5713  -31.4053 N   0  0  0  0  0  0  0  0  0  0  0  0
  -14.0377   -0.7611  -31.9213 C   0  0  0  0  0  0  0  0  0  0  0  0
  -15.0201   -1.5244  -31.6527 O   0  0  0  0  0  0  0  0  0  0  0  0
  -12.9314   -1.0695  -32.7981 C   0  0  0  0  0  0  0  0  0  0  0  0
  -12.7464   -2.1426  -33.4424 N   0  0  0  0  0  0  0  0  0  0  0  0
  -13.5631   -3.2637  -33.4683 N   0  0  0  0  0  0  0  0  0  0  0  0
  -13.2109   -4.3594  -34.2849 C   0  0  0  0  0  0  0  0  0  0  0  0
  -13.0879   -5.6666  -33.8329 C   0  0  0  0  0  0  0  0  0  0  0  0
  -12.7318   -6.6939  -34.6815 C   0  0  0  0  0  0  0  0  0  0  0  0
  -12.4890   -6.4402  -36.0114 C   0  0  0  0  0  0  0  0  0  0  0  0
  -12.6115   -5.1302  -36.4699 C   0  0  0  0  0  0  0  0  0  0  0  0
  -12.9681   -4.0977  -35.6202 C   0  0  0  0  0  0  0  0  0  0  0  0
  -13.0786   -2.7934  -36.1336 O   0  0  0  0  0  0  0  0  0  0  0  0
  -12.0545    0.0923  -32.8028 C   0  0  0  0  0  0  0  0  0  0  0  0
  -10.8559    0.3805  -33.4460 C   0  0  0  0  0  0  0  0  0  0  0  0
  -10.2022    1.5755  -33.2863 C   0  0  0  0  0  0  0  0  0  0  0  0
  -10.7819    2.5059  -32.4491 C   0  0  0  0  0  0  0  0  0  0  0  0
  -11.9692    2.2640  -31.7902 C   0  0  0  0  0  0  0  0  0  0  0  0
  -12.6004    1.0539  -31.9721 C   0  0  0  0  0  0  0  0  0  0  0  0
  1  2  2  0
  2  3  1  0
  3  4  1  0
  4  5  1  0
  5  6  2  0
  5  7  1  0
  7  8  2  3
  8  9  1  0
  9 10  1  0
 10 11  2  0
 11 12  1  0
 12 13  2  0
 13 14  1  0
 14 15  2  0
 15 16  1  0
  7 17  1  0
 17 18  2  0
 18 19  1  0
 19 20  2  0
 20 21  1  0
 21 22  2  0
 22  4  1  0
 15 10  1  0
 22 17  1  0
M  END
$$$$
