
     RDKit          3D

  9  9  0  0  0  0  0  0  0  0999 V2000
  -20.5430   32.9229  -22.1225 C   0  0  0  0  0  0  0  0  0  0  0  0
  -19.5151   33.9692  -22.4031 C   0  0  0  0  0  0  0  0  0  0  0  0
  -18.7137   34.6229  -21.4779 C   0  0  0  0  0  0  0  0  0  0  0  0
  -17.9202   35.4987  -22.1747 C   0  0  0  0  0  0  0  0  0  0  0  0
  -16.9249   36.3924  -21.6029 C   0  0  0  0  0  0  0  0  0  0  0  0
  -16.7198   36.4613  -20.3680 O   0  0  0  0  0  0  0  0  0  0  0  0
  -16.1642   37.2055  -22.4249 O   0  0  0  0  0  0  0  0  0  0  0  0
  -18.2517   35.3587  -23.4772 N   0  0  0  0  0  0  0  0  0  0  0  0
  -19.1971   34.4500  -23.5980 N   0  0  0  0  0  0  0  0  0  0  0  0
  1  2  1  0
  2  3  1  0
  3  4  2  0
  4  5  1  0
  5  6  2  0
  5  7  1  0
  4  8  1  0
  8  9  1  0
  9  2  2  0
M  END
$$$$
