
     RDKit          3D

 34 36  0  0  0  0  0  0  0  0999 V2000
  -43.0802    4.4317  -39.4675 C   0  0  0  0  0  0  0  0  0  0  0  0
  -42.1814    5.2612  -40.2107 N   0  0  0  0  0  0  0  0  0  0  0  0
  -40.9967    4.5065  -40.5719 C   0  0  0  0  0  0  0  0  0  0  0  0
  -42.8443    5.7830  -41.3884 C   0  0  2  0  0  0  0  0  0  0  0  0
  -43.2925    4.6662  -42.2518 C   0  0  0  0  0  0  0  0  0  0  0  0
  -43.2854    3.3378  -41.8506 O   0  0  0  0  0  0  0  0  0  0  0  0
  -43.7199    4.9794  -43.4714 C   0  0  0  0  0  0  0  0  0  0  0  0
  -44.1837    3.9684  -44.4057 C   0  0  0  0  0  0  0  0  0  0  0  0
  -44.6253    4.3557  -45.6840 N   0  0  0  0  0  0  0  0  0  0  0  0
  -44.1837    2.7727  -44.0612 O   0  0  0  0  0  0  0  0  0  0  0  0
  -43.6986    6.3978  -43.8266 C   0  0  0  0  0  0  0  0  0  0  0  0
  -44.5931    6.8267  -44.6055 O   0  0  0  0  0  0  0  0  0  0  0  0
  -42.6500    7.3376  -43.2915 C   0  0  1  0  0  0  0  0  0  0  0  0
  -41.7828    7.5897  -44.3684 O   0  0  0  0  0  0  0  0  0  0  0  0
  -43.3567    8.5827  -42.9132 C   0  0  0  0  0  0  0  0  0  0  0  0
  -44.6448    8.8754  -43.3167 O   0  0  0  0  0  0  0  0  0  0  0  0
  -42.7136    9.4668  -42.1423 C   0  0  0  0  0  0  0  0  0  0  0  0
  -43.4173   10.6870  -41.7773 C   0  0  0  0  0  0  0  0  0  0  0  0
  -44.5611   10.9767  -42.2460 O   0  0  0  0  0  0  0  0  0  0  0  0
  -42.7446   11.5756  -40.8377 C   0  0  0  0  0  0  0  0  0  0  0  0
  -43.3714   12.7577  -40.4483 C   0  0  0  0  0  0  0  0  0  0  0  0
  -44.6236   13.0067  -41.0048 O   0  0  0  0  0  0  0  0  0  0  0  0
  -42.7745   13.6237  -39.5611 C   0  0  0  0  0  0  0  0  0  0  0  0
  -41.5348   13.2785  -39.0723 C   0  0  0  0  0  0  0  0  0  0  0  0
  -40.8947   12.1079  -39.4470 C   0  0  0  0  0  0  0  0  0  0  0  0
  -39.3246   11.7921  -38.7445 Cl  0  0  0  0  0  0  0  0  0  0  0  0
  -41.5083   11.2385  -40.3461 C   0  0  0  0  0  0  0  0  0  0  0  0
  -40.7540   10.0184  -40.6878 C   0  0  1  0  0  0  0  0  0  0  0  0
  -39.3727   10.4929  -41.1441 C   0  0  0  0  0  0  0  0  0  0  0  0
  -40.6033    9.2953  -39.4907 O   0  0  0  0  0  0  0  0  0  0  0  0
  -41.3498    9.1384  -41.7277 C   0  0  1  0  0  0  0  0  0  0  0  0
  -41.3275    7.7125  -41.1953 C   0  0  0  0  0  0  0  0  0  0  0  0
  -41.9158    6.7287  -42.1393 C   0  0  1  0  0  0  0  0  0  0  0  0
  -42.2648    8.6560  -41.5020 Cl  0  0  0  0  0  0  0  0  0  0  0  0
  1  2  1  0
  2  3  1  0
  4  2  1  1
  4  5  1  0
  5  6  1  0
  5  7  2  0
  7  8  1  0
  8  9  1  0
  8 10  2  0
  7 11  1  0
 11 12  2  0
 11 13  1  0
 13 14  1  6
 13 15  1  0
 15 16  1  0
 15 17  2  0
 17 18  1  0
 18 19  2  0
 18 20  1  0
 20 21  2  0
 21 22  1  0
 21 23  1  0
 23 24  2  0
 24 25  1  0
 25 26  1  0
 25 27  2  0
 27 28  1  0
 28 29  1  6
 28 30  1  0
 28 31  1  0
 31 32  1  1
 33 32  1  1
 33  4  1  0
 33 13  1  0
 31 17  1  0
 27 20  1  0
M  END
$$$$
