
     RDKit          3D

 24 25  0  0  0  0  0  0  0  0999 V2000
  -16.3056   35.7825  -21.1057 C   0  0  0  0  0  0  0  0  0  0  0  0
  -16.9250   37.0293  -20.9624 O   0  0  0  0  0  0  0  0  0  0  0  0
  -17.8899   37.5204  -21.8105 C   0  0  0  0  0  0  0  0  0  0  0  0
  -18.7555   36.7516  -22.5257 C   0  0  0  0  0  0  0  0  0  0  0  0
  -19.7007   37.2794  -23.3591 C   0  0  0  0  0  0  0  0  0  0  0  0
  -19.8121   38.6434  -23.5071 C   0  0  0  0  0  0  0  0  0  0  0  0
  -20.7746   39.1316  -24.3534 C   0  0  0  0  0  0  0  0  0  0  0  0
  -21.6715   38.2545  -25.0977 C   0  0  0  0  0  0  0  0  0  0  0  0
  -23.0578   37.7992  -24.3543 S   0  0  0  0  0  0  0  0  0  0  0  0
  -21.3839   37.8089  -26.4131 N   0  0  0  0  0  0  0  0  0  0  0  0
  -21.9281   36.5618  -26.8987 C   0  0  0  0  0  0  0  0  0  0  0  0
  -20.5419   38.5958  -27.2712 C   0  0  0  0  0  0  0  0  0  0  0  0
  -21.2201   39.7646  -27.8557 C   0  0  0  0  0  0  0  0  0  0  0  0
  -20.6717   40.8826  -27.8025 O   0  0  0  0  0  0  0  0  0  0  0  0
  -22.4522   39.6663  -28.4655 O   0  0  0  0  0  0  0  0  0  0  0  0
  -20.8560   40.5107  -24.4752 C   0  0  0  0  0  0  0  0  0  0  0  0
  -20.0259   41.3391  -23.7923 C   0  0  0  0  0  0  0  0  0  0  0  0
  -19.0624   40.8149  -22.9441 C   0  0  0  0  0  0  0  0  0  0  0  0
  -18.9293   39.4622  -22.7787 C   0  0  0  0  0  0  0  0  0  0  0  0
  -17.9765   38.9247  -21.9387 C   0  0  0  0  0  0  0  0  0  0  0  0
  -17.0201   39.7217  -21.1474 C   0  0  0  0  0  0  0  0  0  0  0  0
  -17.4423   40.8024  -20.4877 F   0  0  0  0  0  0  0  0  0  0  0  0
  -16.3944   38.8576  -20.2116 F   0  0  0  0  0  0  0  0  0  0  0  0
  -15.9818   40.1722  -22.0032 F   0  0  0  0  0  0  0  0  0  0  0  0
  1  2  1  0
  2  3  1  0
  3  4  2  0
  4  5  1  0
  5  6  2  0
  6  7  1  0
  7  8  1  0
  8  9  2  0
  8 10  1  0
 10 11  1  0
 10 12  1  0
 12 13  1  0
 13 14  2  0
 13 15  1  0
  7 16  2  0
 16 17  1  0
 17 18  2  0
 18 19  1  0
 19 20  2  0
 20 21  1  0
 21 22  1  0
 21 23  1  0
 21 24  1  0
 20  3  1  0
 19  6  1  0
M  END
$$$$
