
     RDKit          3D

 13 14  0  0  0  0  0  0  0  0999 V2000
  -27.4484   26.9604  -35.3063 O   0  0  0  0  0  0  0  0  0  0  0  0
  -26.4583   27.5103  -34.7616 C   0  0  0  0  0  0  0  0  0  0  0  0
  -26.2151   28.8316  -35.0302 O   0  0  0  0  0  0  0  0  0  0  0  0
  -25.5804   26.7481  -33.8546 C   0  0  0  0  0  0  0  0  0  0  0  0
  -24.6425   27.2399  -32.9755 C   0  0  0  0  0  0  0  0  0  0  0  0
  -24.0462   26.1793  -32.3219 C   0  0  0  0  0  0  0  0  0  0  0  0
  -23.0672   26.0499  -31.3601 C   0  0  0  0  0  0  0  0  0  0  0  0
  -22.6372   24.8351  -30.8578 C   0  0  0  0  0  0  0  0  0  0  0  0
  -21.6613   24.7775  -29.9040 F   0  0  0  0  0  0  0  0  0  0  0  0
  -23.2439   23.7127  -31.3711 C   0  0  0  0  0  0  0  0  0  0  0  0
  -24.2282   23.7793  -32.3338 C   0  0  0  0  0  0  0  0  0  0  0  0
  -24.6404   25.0260  -32.8209 C   0  0  0  0  0  0  0  0  0  0  0  0
  -25.5504   25.4104  -33.7332 N   0  0  0  0  0  0  0  0  0  0  0  0
  1  2  2  0
  2  3  1  0
  2  4  1  0
  4  5  2  0
  5  6  1  0
  6  7  2  0
  7  8  1  0
  8  9  1  0
  8 10  2  0
 10 11  1  0
 11 12  2  0
 12 13  1  0
 13  4  1  0
 12  6  1  0
M  END
$$$$
