
     RDKit          3D

 20 21  0  0  0  0  0  0  0  0999 V2000
  -25.8264   10.6883  -25.9534 C   0  0  0  0  0  0  0  0  0  0  0  0
  -25.9093   11.8224  -26.9129 C   0  0  0  0  0  0  0  0  0  0  0  0
  -26.6652   11.7782  -28.0629 C   0  0  0  0  0  0  0  0  0  0  0  0
  -26.6999   12.8580  -28.9182 C   0  0  0  0  0  0  0  0  0  0  0  0
  -26.0014   14.0265  -28.6884 C   0  0  0  0  0  0  0  0  0  0  0  0
  -26.0957   15.1429  -29.6066 C   0  0  0  0  0  0  0  0  0  0  0  0
  -26.1778   14.9039  -30.8173 O   0  0  0  0  0  0  0  0  0  0  0  0
  -26.0889   16.5069  -29.0610 C   0  0  0  0  0  0  0  0  0  0  0  0
  -25.9313   17.6311  -29.8394 C   0  0  0  0  0  0  0  0  0  0  0  0
  -25.9023   18.9101  -29.2885 C   0  0  0  0  0  0  0  0  0  0  0  0
  -25.7422   20.0325  -30.0987 O   0  0  0  0  0  0  0  0  0  0  0  0
  -26.0305   19.1051  -27.9281 C   0  0  0  0  0  0  0  0  0  0  0  0
  -26.0039   20.3824  -27.3625 O   0  0  0  0  0  0  0  0  0  0  0  0
  -26.1875   17.9814  -27.1461 C   0  0  0  0  0  0  0  0  0  0  0  0
  -26.3212   18.1232  -25.7421 N   0  0  0  0  0  4  0  0  0  0  0  0
  -26.4842   17.0924  -25.0281 O   0  0  0  0  0  0  0  0  0  0  0  0
  -26.2882   19.3193  -25.0744 O   0  0  0  0  0  1  0  0  0  0  0  0
  -26.2174   16.7066  -27.6891 C   0  0  0  0  0  0  0  0  0  0  0  0
  -25.2343   14.0772  -27.5255 C   0  0  0  0  0  0  0  0  0  0  0  0
  -25.1964   12.9990  -26.6683 C   0  0  0  0  0  0  0  0  0  0  0  0
  1  2  1  0
  2  3  2  0
  3  4  1  0
  4  5  2  0
  5  6  1  0
  6  7  2  0
  6  8  1  0
  8  9  2  0
  9 10  1  0
 10 11  1  0
 10 12  2  0
 12 13  1  0
 12 14  1  0
 14 15  1  0
 15 16  2  0
 15 17  1  0
 14 18  2  0
  5 19  1  0
 19 20  2  0
 20  2  1  0
 18  8  1  0
M  CHG  2  15   1  17  -1
M  END
$$$$
