
     RDKit          3D

 21 24  0  0  0  0  0  0  0  0999 V2000
    5.9691   13.6674  -34.3029 C   0  0  0  0  0  0  0  0  0  0  0  0
    5.7568   12.1834  -34.2440 C   0  0  2  0  0  0  0  0  0  0  0  0
    5.2108   11.6956  -32.9564 C   0  0  0  0  0  0  0  0  0  0  0  0
    6.2266   11.9761  -31.8673 C   0  0  0  0  0  0  0  0  0  0  0  0
    7.4857   11.2165  -32.1636 C   0  0  1  0  0  0  0  0  0  0  0  0
    8.0713   11.6756  -33.4692 C   0  0  1  0  0  0  0  0  0  0  0  0
    9.3834   11.0904  -33.8164 C   0  0  0  0  0  0  0  0  0  0  0  0
   10.1834   10.4666  -32.7648 C   0  0  0  0  0  0  0  0  0  0  0  0
    9.5605   10.2863  -31.4253 C   0  0  1  0  0  0  0  0  0  0  0  0
   10.6354   10.1434  -30.4035 C   0  0  0  0  0  0  0  0  0  0  0  0
   10.2695   10.3695  -29.0026 C   0  0  2  0  0  0  0  0  0  0  0  0
   10.2501    9.1392  -28.3011 O   0  0  0  0  0  0  0  0  0  0  0  0
    9.0194   11.0992  -28.7198 C   0  0  0  0  0  0  0  0  0  0  0  0
    7.9607   11.0197  -29.7565 C   0  0  0  0  0  0  0  0  0  0  0  0
    8.5328   11.3449  -31.0962 C   0  0  2  0  0  0  0  0  0  0  0  0
    9.1582   12.7166  -31.0461 C   0  0  0  0  0  0  0  0  0  0  0  0
    7.0428   11.4004  -34.5094 C   0  0  2  0  0  0  0  0  0  0  0  0
    7.3562   11.8025  -35.8939 C   0  0  0  0  0  0  0  0  0  0  0  0
    5.9711   11.7503  -36.5589 C   0  0  0  0  0  0  0  0  0  0  0  0
    4.9956   11.7851  -35.4458 C   0  0  0  0  0  0  0  0  0  0  0  0
    3.8191   11.5414  -35.4930 O   0  0  0  0  0  0  0  0  0  0  0  0
  2  1  1  1
  2  3  1  0
  3  4  1  0
  5  4  1  1
  5  6  1  0
  6  7  1  6
  7  8  1  0
  9  8  1  6
  9 10  1  0
 10 11  1  0
 11 12  1  1
 11 13  1  0
 13 14  1  0
 14 15  1  0
 15 16  1  1
  6 17  1  0
 17 18  1  6
 18 19  1  0
 19 20  1  0
 20 21  2  0
 17  2  1  0
 20  2  1  0
 15  5  1  0
 15  9  1  0
M  END
$$$$
