
     RDKit          3D

 38 41  0  0  0  0  0  0  0  0999 V2000
  -30.4280   18.6742  -29.4924 C   0  0  0  0  0  0  0  0  0  0  0  0
  -29.5244   18.7450  -28.3367 C   0  0  0  0  0  0  0  0  0  0  0  0
  -28.5279   19.7013  -28.3124 C   0  0  0  0  0  0  0  0  0  0  0  0
  -28.3291   20.6558  -29.3987 C   0  0  0  0  0  0  0  0  0  0  0  0
  -27.4822   20.5301  -30.4658 C   0  0  0  0  0  0  0  0  0  0  0  0
  -27.6079   21.6555  -31.2498 C   0  0  0  0  0  0  0  0  0  0  0  0
  -28.5148   22.4408  -30.6610 N   0  0  0  0  0  0  0  0  0  0  0  0
  -28.9503   21.8392  -29.5452 N   0  0  0  0  0  0  0  0  0  0  0  0
  -29.9378   22.3398  -28.6038 C   0  0  0  0  0  0  0  0  0  0  0  0
  -27.7112   19.7327  -27.2197 C   0  0  0  0  0  0  0  0  0  0  0  0
  -27.8422   18.8542  -26.1493 C   0  0  0  0  0  0  0  0  0  0  0  0
  -26.9181   18.9803  -25.0399 C   0  0  0  0  0  0  0  0  0  0  0  0
  -25.8875   19.7188  -25.2199 O   0  0  0  0  0  0  0  0  0  0  0  0
  -27.0358   18.3704  -23.7727 N   0  0  0  0  0  0  0  0  0  0  0  0
  -26.0246   18.6108  -22.7212 C   0  0  0  0  0  0  0  0  0  0  0  0
  -25.0123   17.5444  -22.8097 C   0  0  0  0  0  0  0  0  0  0  0  0
  -25.1073   16.6110  -23.8158 C   0  0  0  0  0  0  0  0  0  0  0  0
  -24.1948   15.5786  -23.9648 C   0  0  0  0  0  0  0  0  0  0  0  0
  -23.1654   15.5191  -23.0484 C   0  0  0  0  0  0  0  0  0  0  0  0
  -21.9620   14.2486  -23.1555 S   0  0  0  0  0  6  0  0  0  0  0  0
  -22.5944   12.8394  -22.2784 C   0  0  0  0  0  0  0  0  0  0  0  0
  -20.7095   14.7388  -22.4524 O   0  0  0  0  0  0  0  0  0  0  0  0
  -21.6657   13.9446  -24.5872 O   0  0  0  0  0  0  0  0  0  0  0  0
  -23.0954   16.4696  -22.0493 C   0  0  0  0  0  0  0  0  0  0  0  0
  -23.9838   17.4516  -21.9268 N   0  0  0  0  0  0  0  0  0  0  0  0
  -28.8511   17.9355  -26.2447 C   0  0  0  0  0  0  0  0  0  0  0  0
  -29.0460   17.1083  -25.3367 O   0  0  0  0  0  0  0  0  0  0  0  0
  -29.6705   17.8818  -27.3094 N   0  0  0  0  0  0  0  0  0  0  0  0
  -30.7122   16.9037  -27.3633 C   0  0  0  0  0  0  0  0  0  0  0  0
  -30.5015   15.7273  -28.0708 C   0  0  0  0  0  0  0  0  0  0  0  0
  -31.4929   14.7715  -28.1347 C   0  0  0  0  0  0  0  0  0  0  0  0
  -32.6995   14.9594  -27.5061 C   0  0  0  0  0  0  0  0  0  0  0  0
  -32.9222   16.1282  -26.7972 C   0  0  0  0  0  0  0  0  0  0  0  0
  -34.2293   16.3036  -26.1309 C   0  0  0  0  0  0  0  0  0  0  0  0
  -34.9033   15.1025  -25.9856 F   0  0  0  0  0  0  0  0  0  0  0  0
  -34.0476   16.7985  -24.8392 F   0  0  0  0  0  0  0  0  0  0  0  0
  -34.9818   17.1553  -26.8900 F   0  0  0  0  0  0  0  0  0  0  0  0
  -31.9218   17.0784  -26.7403 C   0  0  0  0  0  0  0  0  0  0  0  0
  1  2  1  0
  2  3  2  0
  3  4  1  0
  4  5  2  0
  5  6  1  0
  6  7  2  0
  7  8  1  0
  8  9  1  0
  3 10  1  0
 10 11  2  0
 11 12  1  0
 12 13  2  0
 12 14  1  0
 14 15  1  0
 15 16  1  0
 16 17  2  0
 17 18  1  0
 18 19  2  0
 19 20  1  0
 20 21  1  0
 20 22  2  0
 20 23  2  0
 19 24  1  0
 24 25  2  0
 11 26  1  0
 26 27  2  0
 26 28  1  0
 28 29  1  0
 29 30  2  0
 30 31  1  0
 31 32  2  0
 32 33  1  0
 33 34  1  0
 34 35  1  0
 34 36  1  0
 34 37  1  0
 33 38  2  0
 28  2  1  0
 38 29  1  0
  8  4  1  0
 25 16  1  0
M  END
$$$$
