
     RDKit          3D

 30 33  0  0  0  0  0  0  0  0999 V2000
  -17.1907   45.8687  -22.8677 O   0  0  0  0  0  0  0  0  0  0  0  0
  -17.5412   46.0429  -21.6757 C   0  0  0  0  0  0  0  0  0  0  0  0
  -18.0583   44.9427  -20.9694 N   0  0  0  0  0  0  0  0  0  0  0  0
  -18.1514   43.6113  -21.4566 C   0  0  0  0  0  0  0  0  0  0  0  0
  -18.0953   43.3059  -22.7982 C   0  0  0  0  0  0  0  0  0  0  0  0
  -18.1874   41.9983  -23.2820 C   0  0  0  0  0  0  0  0  0  0  0  0
  -18.3407   40.9917  -22.3501 C   0  0  0  0  0  0  0  0  0  0  0  0
  -18.4002   41.2637  -21.0009 C   0  0  0  0  0  0  0  0  0  0  0  0
  -18.5592   40.1786  -20.0968 N   0  0  0  0  0  0  0  0  0  0  0  0
  -17.8989   38.9563  -20.2739 C   0  0  0  0  0  0  0  0  0  0  0  0
  -17.4445   38.2604  -19.2252 N   0  0  0  0  0  0  0  0  0  0  0  0
  -16.8060   37.0779  -19.3718 C   0  0  0  0  0  0  0  0  0  0  0  0
  -16.6141   36.5682  -20.6313 C   0  0  0  0  0  0  0  0  0  0  0  0
  -15.7205   34.9074  -20.8952 Br  0  0  0  0  0  0  0  0  0  0  0  0
  -17.0838   37.2860  -21.7220 C   0  0  0  0  0  0  0  0  0  0  0  0
  -16.8836   36.7484  -23.0105 N   0  0  0  0  0  0  0  0  0  0  0  0
  -17.6044   37.2846  -24.1355 C   0  0  0  0  0  0  0  0  0  0  0  0
  -18.9780   36.6754  -24.2116 C   0  0  0  0  0  0  0  0  0  0  0  0
  -20.0451   37.7027  -24.1617 C   0  0  0  0  0  0  0  0  0  0  0  0
  -21.2686   37.5731  -23.5542 C   0  0  0  0  0  0  0  0  0  0  0  0
  -21.9305   38.7197  -23.7380 N   0  0  0  0  0  0  0  0  0  0  0  0
  -21.1512   39.5651  -24.4465 C   0  0  0  0  0  0  0  0  0  0  0  0
  -19.9877   38.9410  -24.7094 N   0  0  0  0  0  0  0  0  0  0  0  0
  -17.7161   38.4669  -21.5028 N   0  0  0  0  0  0  0  0  0  0  0  0
  -18.3072   42.5634  -20.5435 C   0  0  0  0  0  0  0  0  0  0  0  0
  -17.3935   47.3408  -21.1144 N   0  0  0  0  0  0  0  0  0  0  0  0
  -16.8422   48.5046  -21.7624 C   0  0  0  0  0  0  0  0  0  0  0  0
  -17.8682   49.5663  -21.4084 C   0  0  0  0  0  0  0  0  0  0  0  0
  -18.5499   49.0573  -20.1431 C   0  0  0  0  0  0  0  0  0  0  0  0
  -17.7595   47.7931  -19.7825 C   0  0  0  0  0  0  0  0  0  0  0  0
  1  2  2  0
  2  3  1  0
  3  4  1  0
  4  5  2  0
  5  6  1  0
  6  7  2  0
  7  8  1  0
  8  9  1  0
  9 10  1  0
 10 11  2  0
 11 12  1  0
 12 13  2  0
 13 14  1  0
 13 15  1  0
 15 16  1  0
 16 17  1  0
 17 18  1  0
 18 19  1  0
 19 20  2  0
 20 21  1  0
 21 22  1  0
 22 23  2  0
 15 24  2  0
  8 25  2  0
  2 26  1  0
 26 27  1  0
 27 28  1  0
 28 29  1  0
 29 30  1  0
 25  4  1  0
 30 26  1  0
 24 10  1  0
 23 19  1  0
M  END
$$$$
