
     RDKit          3D

 35 39  0  0  0  0  0  0  0  0999 V2000
  -18.2107   18.8860  -34.8361 O   0  0  0  0  0  0  0  0  0  0  0  0
  -17.7487   18.0404  -35.6314 C   0  0  0  0  0  0  0  0  0  0  0  0
  -18.2448   17.8427  -36.9361 N   0  0  0  0  0  0  0  0  0  0  0  0
  -19.2552   16.9103  -37.3404 C   0  0  0  0  0  0  0  0  0  0  0  0
  -20.6854   17.3172  -37.2336 C   0  0  0  0  0  0  0  0  0  0  0  0
  -21.0260   18.3227  -38.2260 N   0  0  0  0  0  0  0  0  0  0  0  0
  -20.6266   19.6548  -37.9223 C   0  0  0  0  0  0  0  0  0  0  0  0
  -21.5523   20.5276  -38.7880 C   0  0  0  0  0  0  0  0  0  0  0  0
  -21.1217   20.3587  -40.1302 N   0  0  0  0  0  0  0  0  0  0  0  0
  -21.1679   21.3828  -41.1185 C   0  0  0  0  0  0  0  0  0  0  0  0
  -21.0910   22.7084  -40.7337 C   0  0  0  0  0  0  0  0  0  0  0  0
  -21.1323   23.7222  -41.6632 C   0  0  0  0  0  0  0  0  0  0  0  0
  -21.2533   23.3917  -43.0111 C   0  0  0  0  0  0  0  0  0  0  0  0
  -21.3321   22.0800  -43.4255 C   0  0  0  0  0  0  0  0  0  0  0  0
  -21.2862   21.0860  -42.4437 C   0  0  0  0  0  0  0  0  0  0  0  0
  -20.6060   19.0760  -40.5320 C   0  0  0  0  0  0  0  0  0  0  0  0
  -20.6657   17.9764  -39.5413 C   0  0  0  0  0  0  0  0  0  0  0  0
  -20.9604   17.8979  -35.8322 C   0  0  0  0  0  0  0  0  0  0  0  0
  -22.0540   17.1403  -35.1280 C   0  0  0  0  0  0  0  0  0  0  0  0
  -23.2273   17.0404  -35.8377 O   0  0  0  0  0  0  0  0  0  0  0  0
  -23.0548   16.8979  -37.2173 C   0  0  0  0  0  0  0  0  0  0  0  0
  -21.6585   16.2078  -37.3712 C   0  0  0  0  0  0  0  0  0  0  0  0
  -16.6391   17.2357  -35.1493 C   0  0  0  0  0  0  0  0  0  0  0  0
  -16.8455   16.6310  -33.9062 C   0  0  0  0  0  0  0  0  0  0  0  0
  -15.8574   15.8614  -33.3896 C   0  0  0  0  0  0  0  0  0  0  0  0
  -14.6821   15.6715  -34.0552 C   0  0  0  0  0  0  0  0  0  0  0  0
  -14.5179   16.2767  -35.2627 N   0  0  0  0  0  0  0  0  0  0  0  0
  -15.4688   17.0426  -35.8048 C   0  0  0  0  0  0  0  0  0  0  0  0
  -15.2092   17.8087  -37.3733 S   0  0  0  0  0  0  0  0  0  0  0  0
  -13.7912   17.0389  -38.1474 C   0  0  0  0  0  0  0  0  0  0  0  0
  -12.5059   17.2621  -37.7276 C   0  0  0  0  0  0  0  0  0  0  0  0
  -11.4152   16.6654  -38.3347 C   0  0  0  0  0  0  0  0  0  0  0  0
  -11.6029   15.8128  -39.4012 C   0  0  0  0  0  0  0  0  0  0  0  0
  -12.8898   15.5861  -39.8262 C   0  0  0  0  0  0  0  0  0  0  0  0
  -13.9679   16.1825  -39.2174 C   0  0  0  0  0  0  0  0  0  0  0  0
  1  2  2  0
  2  3  1  0
  3  4  1  0
  4  5  1  0
  5  6  1  0
  6  7  1  0
  7  8  1  0
  8  9  1  0
  9 10  1  0
 10 11  2  0
 11 12  1  0
 12 13  2  0
 13 14  1  0
 14 15  2  0
  9 16  1  0
 16 17  1  0
  5 18  1  0
 18 19  1  0
 19 20  1  0
 20 21  1  0
 21 22  1  0
  2 23  1  0
 23 24  2  0
 24 25  1  0
 25 26  2  0
 26 27  1  0
 27 28  2  0
 28 29  1  0
 29 30  1  0
 30 31  2  0
 31 32  1  0
 32 33  2  0
 33 34  1  0
 34 35  2  0
 22  5  1  0
 28 23  1  0
 35 30  1  0
 17  6  1  0
 15 10  1  0
M  END
$$$$
