
     RDKit          3D

 37 40  0  0  0  0  0  0  0  0999 V2000
  -28.6484   15.4884  -24.1206 C   0  0  0  0  0  0  0  0  0  0  0  0
  -29.5373   14.9848  -25.1005 O   0  0  0  0  0  0  0  0  0  0  0  0
  -30.3750   15.8878  -25.7446 C   0  0  0  0  0  0  0  0  0  0  0  0
  -29.9092   17.1142  -26.2080 C   0  0  0  0  0  0  0  0  0  0  0  0
  -30.7046   18.0358  -26.8511 C   0  0  0  0  0  0  0  0  0  0  0  0
  -30.2362   19.3121  -27.3666 C   0  0  0  0  0  0  0  0  0  0  0  0
  -30.4868   19.8706  -28.5706 N   0  0  0  0  0  0  0  0  0  0  0  0
  -29.8665   21.0284  -28.6739 N   0  0  0  0  0  0  0  0  0  0  0  0
  -29.8755   21.9578  -29.8177 C   0  0  0  0  0  0  0  0  0  0  0  0
  -28.9085   21.4199  -30.8072 C   0  0  0  0  0  0  0  0  0  0  0  0
  -27.5398   21.7104  -30.6226 N   0  0  0  0  0  0  0  0  0  0  0  0
  -26.7126   20.5576  -30.5574 C   0  0  0  0  0  0  0  0  0  0  0  0
  -25.5787   20.5333  -31.5382 C   0  0  0  0  0  0  0  0  0  0  0  0
  -25.9521   21.4445  -32.6868 C   0  0  0  0  0  0  0  0  0  0  0  0
  -25.0660   21.2685  -33.7928 N   0  0  0  0  0  0  0  0  0  0  0  0
  -23.6795   21.2744  -33.4463 C   0  0  0  0  0  0  0  0  0  0  0  0
  -25.3190   22.2128  -34.8407 C   0  0  0  0  0  0  0  0  0  0  0  0
  -25.9484   22.8466  -32.1192 C   0  0  0  0  0  0  0  0  0  0  0  0
  -26.9923   22.9098  -31.0394 C   0  0  0  0  0  0  0  0  0  0  0  0
  -29.1823   21.2851  -27.5512 C   0  0  0  0  0  0  0  0  0  0  0  0
  -28.3941   22.2625  -27.1035 N   0  0  0  0  0  0  0  0  0  0  0  0
  -27.8104   22.2686  -25.9107 C   0  0  0  0  0  0  0  0  0  0  0  0
  -28.0017   21.2491  -25.0817 N   0  0  0  0  0  0  0  0  0  0  0  0
  -28.7875   20.2340  -25.4789 C   0  0  0  0  0  0  0  0  0  0  0  0
  -28.9358   19.1594  -24.5614 N   0  0  0  0  0  0  0  0  0  0  0  0
  -29.4117   20.1912  -26.7067 C   0  0  0  0  0  0  0  0  0  0  0  0
  -32.0449   17.6653  -27.0182 C   0  0  0  0  0  0  0  0  0  0  0  0
  -32.5128   16.4545  -26.5623 C   0  0  0  0  0  0  0  0  0  0  0  0
  -31.6858   15.5551  -25.9227 C   0  0  0  0  0  0  0  0  0  0  0  0
  -32.2497   14.3220  -25.4806 N   0  0  0  0  0  0  0  0  0  0  0  0
  -33.6386   14.1865  -25.1883 C   0  0  0  0  0  0  0  0  0  0  0  0
  -34.4290   14.8515  -25.8930 O   0  0  0  0  0  0  0  0  0  0  0  0
  -34.1461   13.3853  -24.1991 O   0  0  0  0  0  0  0  0  0  0  0  0
  -35.4757   12.9355  -24.1286 C   0  0  0  0  0  0  0  0  0  0  0  0
  -35.5431   11.7750  -23.1293 C   0  0  0  0  0  0  0  0  0  0  0  0
  -36.0244   12.4374  -25.4189 C   0  0  0  0  0  0  0  0  0  0  0  0
  -36.3350   14.0570  -23.6155 C   0  0  0  0  0  0  0  0  0  0  0  0
  1  2  1  0
  2  3  1  0
  3  4  2  0
  4  5  1  0
  5  6  1  0
  6  7  2  0
  7  8  1  0
  8  9  1  0
  9 10  1  0
 10 11  1  0
 11 12  1  0
 12 13  1  0
 13 14  1  0
 14 15  1  0
 15 16  1  0
 15 17  1  0
 14 18  1  0
 18 19  1  0
  8 20  1  0
 20 21  2  0
 21 22  1  0
 22 23  2  0
 23 24  1  0
 24 25  1  0
 24 26  2  0
  5 27  2  0
 27 28  1  0
 28 29  2  0
 29 30  1  0
 30 31  1  0
 31 32  2  0
 31 33  1  0
 33 34  1  0
 34 35  1  0
 34 36  1  0
 34 37  1  0
 29  3  1  0
 26  6  1  0
 19 11  1  0
 26 20  1  0
M  END
$$$$
