
     RDKit          3D

 32 37  0  0  0  0  0  0  0  0999 V2000
  -26.0751   32.5899  -35.3604 C   0  0  0  0  0  0  0  0  0  0  0  0
  -27.0631   31.4745  -35.1892 C   0  0  2  0  0  0  0  0  0  0  0  0
  -28.3303   31.9408  -34.8879 O   0  0  0  0  0  0  0  0  0  0  0  0
  -26.5709   30.3512  -34.2525 C   0  0  0  0  0  0  0  0  0  0  0  0
  -25.9204   29.7177  -35.4281 C   0  0  1  0  0  0  0  0  0  0  0  0
  -26.0353   28.2646  -35.6078 C   0  0  0  0  0  0  0  0  0  0  0  0
  -25.9088   27.6156  -36.7952 N   0  0  0  0  0  0  0  0  0  0  0  0
  -26.0649   26.3017  -36.5719 C   0  0  0  0  0  0  0  0  0  0  0  0
  -26.0284   25.2256  -37.5833 C   0  0  0  0  0  0  0  0  0  0  0  0
  -27.1423   24.4682  -37.8493 C   0  0  0  0  0  0  0  0  0  0  0  0
  -27.1118   23.4980  -38.8049 C   0  0  0  0  0  0  0  0  0  0  0  0
  -25.9841   23.2269  -39.5424 C   0  0  0  0  0  0  0  0  0  0  0  0
  -25.9568   22.2460  -40.5068 C   0  0  0  0  0  0  0  0  0  0  0  0
  -24.7851   22.0426  -41.1966 C   0  0  0  0  0  0  0  0  0  0  0  0
  -23.6787   22.8159  -40.9104 C   0  0  0  0  0  0  0  0  0  0  0  0
  -22.4072   22.6468  -41.6089 C   0  0  0  0  0  0  0  0  0  0  0  0
  -21.2513   23.2347  -41.0849 C   0  0  0  0  0  0  0  0  0  0  0  0
  -20.0329   23.1051  -41.7035 C   0  0  0  0  0  0  0  0  0  0  0  0
  -19.9004   22.3930  -42.8616 C   0  0  0  0  0  0  0  0  0  0  0  0
  -21.0211   21.8092  -43.3912 C   0  0  0  0  0  0  0  0  0  0  0  0
  -22.2628   21.9448  -42.7553 C   0  0  0  0  0  0  0  0  0  0  0  0
  -23.7567   23.7633  -39.9573 N   0  0  0  0  0  0  0  0  0  0  0  0
  -24.8724   24.0078  -39.2511 C   0  0  0  0  0  0  0  0  0  0  0  0
  -24.8807   24.9906  -38.2934 C   0  0  0  0  0  0  0  0  0  0  0  0
  -26.2914   26.1454  -35.2316 C   0  0  0  0  0  0  0  0  0  0  0  0
  -26.5283   25.0507  -34.4431 C   0  0  0  0  0  0  0  0  0  0  0  0
  -26.5917   23.7674  -35.0334 N   0  0  0  0  0  0  0  0  0  0  0  0
  -26.7268   25.1847  -33.1397 N   0  0  0  0  0  0  0  0  0  0  0  0
  -26.7027   26.3914  -32.5570 C   0  0  0  0  0  0  0  0  0  0  0  0
  -26.4707   27.5256  -33.3047 C   0  0  0  0  0  0  0  0  0  0  0  0
  -26.2716   27.3769  -34.6260 N   0  0  0  0  0  0  0  0  0  0  0  0
  -27.0089   30.4181  -36.2887 C   0  0  0  0  0  0  0  0  0  0  0  0
  2  1  1  6
  2  3  1  0
  2  4  1  0
  4  5  1  0
  5  6  1  1
  6  7  2  0
  7  8  1  0
  8  9  1  0
  9 10  2  0
 10 11  1  0
 11 12  2  0
 12 13  1  0
 13 14  2  0
 14 15  1  0
 15 16  1  0
 16 17  2  0
 17 18  1  0
 18 19  2  0
 19 20  1  0
 20 21  2  0
 15 22  2  0
 22 23  1  0
 23 24  2  0
  8 25  2  0
 25 26  1  0
 26 27  1  0
 26 28  2  0
 28 29  1  0
 29 30  2  0
 30 31  1  0
  5 32  1  0
 32  2  1  0
 31  6  1  0
 24  9  1  0
 31 25  1  0
 23 12  1  0
 21 16  1  0
M  END
$$$$
