
     RDKit          3D

 21 23  0  0  0  0  0  0  0  0999 V2000
  -31.6009   20.9225  -26.6536 O   0  0  0  0  0  0  0  0  0  0  0  0
  -30.9602   19.8245  -26.6928 C   0  0  0  0  0  0  0  0  0  0  0  0
  -31.5413   18.6567  -26.2810 N   0  0  0  0  0  0  0  0  0  0  0  0
  -30.8909   17.4963  -26.3127 C   0  0  0  0  0  0  0  0  0  0  0  0
  -31.5292   16.2739  -25.8708 C   0  0  0  0  0  0  0  0  0  0  0  0
  -32.8873   16.1138  -25.8549 C   0  0  0  0  0  0  0  0  0  0  0  0
  -33.4991   14.9316  -25.4273 C   0  0  0  0  0  0  0  0  0  0  0  0
  -32.7254   13.8813  -25.0041 C   0  0  0  0  0  0  0  0  0  0  0  0
  -33.3330   12.5893  -24.5348 C   0  0  0  0  0  0  0  0  0  0  0  0
  -32.5334   11.5312  -24.9702 F   0  0  0  0  0  0  0  0  0  0  0  0
  -34.5917   12.4199  -25.0797 F   0  0  0  0  0  0  0  0  0  0  0  0
  -33.4406   12.5576  -23.1585 F   0  0  0  0  0  0  0  0  0  0  0  0
  -31.3501   14.0190  -25.0110 C   0  0  0  0  0  0  0  0  0  0  0  0
  -30.7575   15.1855  -25.4332 C   0  0  0  0  0  0  0  0  0  0  0  0
  -29.6207   17.5236  -26.7736 N   0  0  0  0  0  0  0  0  0  0  0  0
  -28.9922   18.6301  -27.1918 C   0  0  0  0  0  0  0  0  0  0  0  0
  -29.6676   19.8316  -27.1582 C   0  0  0  0  0  0  0  0  0  0  0  0
  -29.0195   21.1011  -27.6118 C   0  0  0  0  0  0  0  0  0  0  0  0
  -27.3926   21.1572  -26.7659 S   0  0  0  0  0  0  0  0  0  0  0  0
  -26.6843   19.4953  -26.9086 C   0  0  0  0  0  0  0  0  0  0  0  0
  -27.5942   18.5685  -27.6832 C   0  0  0  0  0  0  0  0  0  0  0  0
  1  2  2  0
  2  3  1  0
  3  4  1  0
  4  5  1  0
  5  6  2  0
  6  7  1  0
  7  8  2  0
  8  9  1  0
  9 10  1  0
  9 11  1  0
  9 12  1  0
  8 13  1  0
 13 14  2  0
  4 15  2  0
 15 16  1  0
 16 17  2  0
 17 18  1  0
 18 19  1  0
 19 20  1  0
 20 21  1  0
 17  2  1  0
 14  5  1  0
 21 16  1  0
M  END
$$$$
