
     RDKit          3D

 26 29  0  0  0  0  0  0  0  0999 V2000
  -22.9992   33.7187  -21.2224 C   0  0  0  0  0  0  0  0  0  0  0  0
  -22.2507   33.1136  -22.3669 C   0  0  0  0  0  0  0  0  0  0  0  0
  -20.4972   33.2366  -22.1040 S   0  0  0  0  0  6  0  0  0  0  0  0
  -20.2226   32.5696  -20.7635 O   0  0  0  0  0  0  0  0  0  0  0  0
  -19.7394   32.5284  -23.1860 O   0  0  0  0  0  0  0  0  0  0  0  0
  -20.0923   34.9137  -22.0541 N   0  0  0  0  0  0  0  0  0  0  0  0
  -19.0453   35.2483  -21.1242 C   0  0  0  0  0  0  0  0  0  0  0  0
  -18.2104   35.7876  -22.2387 C   0  0  0  0  0  0  0  0  0  0  0  0
  -16.9491   35.0121  -22.5584 C   0  0  0  0  0  0  0  0  0  0  0  0
  -17.2488   33.6014  -22.4597 C   0  0  0  0  0  0  0  0  0  0  0  0
  -17.4836   32.4689  -22.3939 N   0  0  0  0  0  0  0  0  0  0  0  0
  -17.9250   37.2114  -22.1658 N   0  0  0  0  0  0  0  0  0  0  0  0
  -18.6873   38.2364  -22.6174 C   0  0  0  0  0  0  0  0  0  0  0  0
  -18.0451   39.4333  -22.3462 C   0  0  0  0  0  0  0  0  0  0  0  0
  -18.5060   40.7838  -22.6639 C   0  0  0  0  0  0  0  0  0  0  0  0
  -19.4336   41.0323  -23.5956 N   0  0  0  0  0  0  0  0  0  0  0  0
  -19.8721   42.2659  -23.9011 C   0  0  0  0  0  0  0  0  0  0  0  0
  -19.3452   43.3044  -23.2292 N   0  0  0  0  0  0  0  0  0  0  0  0
  -18.4088   43.1283  -22.2793 C   0  0  0  0  0  0  0  0  0  0  0  0
  -17.7225   43.9638  -21.4641 N   0  0  0  0  0  0  0  0  0  0  0  0
  -16.8819   43.2811  -20.6731 C   0  0  0  0  0  0  0  0  0  0  0  0
  -17.0295   41.9446  -20.9892 C   0  0  0  0  0  0  0  0  0  0  0  0
  -17.9767   41.8612  -21.9846 C   0  0  0  0  0  0  0  0  0  0  0  0
  -16.8709   39.0861  -21.7160 C   0  0  0  0  0  0  0  0  0  0  0  0
  -16.8572   37.7528  -21.6381 N   0  0  0  0  0  0  0  0  0  0  0  0
  -19.3348   35.4064  -23.1635 C   0  0  0  0  0  0  0  0  0  0  0  0
  1  2  1  0
  2  3  1  0
  3  4  2  0
  3  5  2  0
  3  6  1  0
  6  7  1  0
  7  8  1  0
  8  9  1  0
  9 10  1  0
 10 11  3  0
  8 12  1  0
 12 13  1  0
 13 14  2  0
 14 15  1  0
 15 16  2  0
 16 17  1  0
 17 18  2  0
 18 19  1  0
 19 20  1  0
 20 21  1  0
 21 22  2  0
 22 23  1  0
 14 24  1  0
 24 25  2  0
  8 26  1  0
 26  6  1  0
 25 12  1  0
 23 15  1  0
 23 19  2  0
M  END
$$$$
