
     RDKit          3D

 29 32  0  0  0  0  0  0  0  0999 V2000
  -19.2044   22.8049  -33.8095 C   0  0  0  0  0  0  0  0  0  0  0  0
  -20.3523   22.4950  -32.8789 C   0  0  0  0  0  0  0  0  0  0  0  0
  -19.9904   21.2734  -32.0658 C   0  0  2  0  0  0  0  0  0  0  0  0
  -19.8255   20.1015  -32.9391 N   0  0  0  0  0  0  0  0  0  0  0  0
  -18.8130   19.1659  -32.7628 C   0  0  0  0  0  0  0  0  0  0  0  0
  -18.0379   19.3869  -31.7490 O   0  0  0  0  0  0  0  0  0  0  0  0
  -18.4883   17.9881  -33.5147 C   0  0  0  0  0  0  0  0  0  0  0  0
  -19.5015   17.3668  -34.2690 C   0  0  0  0  0  0  0  0  0  0  0  0
  -20.7675   17.9383  -34.2612 O   0  0  0  0  0  0  0  0  0  0  0  0
  -19.2952   16.2356  -35.0022 C   0  0  0  0  0  0  0  0  0  0  0  0
  -20.3976   15.6629  -35.7507 C   0  0  0  0  0  0  0  0  0  0  0  0
  -21.1695   16.4117  -36.6063 C   0  0  0  0  0  0  0  0  0  0  0  0
  -22.2132   15.8456  -37.3081 C   0  0  0  0  0  0  0  0  0  0  0  0
  -22.5161   14.4938  -37.1694 C   0  0  0  0  0  0  0  0  0  0  0  0
  -21.7606   13.7375  -36.3252 C   0  0  0  0  0  0  0  0  0  0  0  0
  -20.7170   14.3246  -35.6295 C   0  0  0  0  0  0  0  0  0  0  0  0
  -18.0601   15.7067  -34.9889 N   0  0  0  0  0  0  0  0  0  0  0  0
  -17.0277   16.2304  -34.2945 C   0  0  0  0  0  0  0  0  0  0  0  0
  -15.7959   15.6029  -34.3158 C   0  0  0  0  0  0  0  0  0  0  0  0
  -14.7359   16.1007  -33.5901 C   0  0  0  0  0  0  0  0  0  0  0  0
  -14.9307   17.2338  -32.8443 C   0  0  0  0  0  0  0  0  0  0  0  0
  -16.1764   17.8565  -32.8323 C   0  0  0  0  0  0  0  0  0  0  0  0
  -17.2572   17.3905  -33.5470 C   0  0  0  0  0  0  0  0  0  0  0  0
  -21.0288   21.0503  -31.0511 C   0  0  0  0  0  0  0  0  0  0  0  0
  -20.8527   21.3115  -29.7153 C   0  0  0  0  0  0  0  0  0  0  0  0
  -21.8554   21.0873  -28.7940 C   0  0  0  0  0  0  0  0  0  0  0  0
  -23.0790   20.5883  -29.1920 C   0  0  0  0  0  0  0  0  0  0  0  0
  -23.2846   20.3163  -30.5292 C   0  0  0  0  0  0  0  0  0  0  0  0
  -22.2703   20.5471  -31.4340 C   0  0  0  0  0  0  0  0  0  0  0  0
  1  2  1  0
  3  2  1  6
  3  4  1  0
  4  5  1  0
  5  6  2  0
  5  7  1  0
  7  8  2  0
  8  9  1  0
  8 10  1  0
 10 11  1  0
 11 12  2  0
 12 13  1  0
 13 14  2  0
 14 15  1  0
 15 16  2  0
 10 17  2  0
 17 18  1  0
 18 19  2  0
 19 20  1  0
 20 21  2  0
 21 22  1  0
 22 23  2  0
  3 24  1  0
 24 25  2  0
 25 26  1  0
 26 27  2  0
 27 28  1  0
 28 29  2  0
 23  7  1  0
 29 24  1  0
 16 11  1  0
 23 18  1  0
M  END
$$$$
