
     RDKit          3D

 34 35  0  0  0  0  0  0  0  0999 V2000
  -26.4206   20.5248  -26.3207 O   0  0  0  0  0  0  0  0  0  0  0  0
  -26.5718   19.4214  -26.8757 C   0  0  0  0  0  0  0  0  0  0  0  0
  -26.0414   18.2191  -26.2154 C   0  0  0  0  0  0  0  0  0  0  0  0
  -26.2045   17.0189  -26.6802 C   0  0  0  0  0  0  0  0  0  0  0  0
  -25.5066   15.8078  -26.2437 C   0  0  0  0  0  0  0  0  0  0  0  0
  -24.9697   15.7179  -24.9757 C   0  0  0  0  0  0  0  0  0  0  0  0
  -24.3225   14.5846  -24.5817 C   0  0  0  0  0  0  0  0  0  0  0  0
  -24.1772   13.4931  -25.4206 C   0  0  0  0  0  0  0  0  0  0  0  0
  -23.5174   12.3273  -25.0304 O   0  0  0  0  0  0  0  0  0  0  0  0
  -24.7197   13.6002  -26.6845 C   0  0  0  0  0  0  0  0  0  0  0  0
  -24.6030   12.5237  -27.5809 O   0  0  0  0  0  0  0  0  0  0  0  0
  -25.3770   14.7389  -27.0978 C   0  0  0  0  0  0  0  0  0  0  0  0
  -27.2328   19.3721  -28.0945 O   0  0  0  0  0  0  0  0  0  0  0  0
  -27.7835   20.6010  -28.6481 C   0  0  1  0  0  0  0  0  0  0  0  0
  -26.8524   21.1165  -29.6728 C   0  0  0  0  0  0  0  0  0  0  0  0
  -26.4695   20.2831  -30.5841 O   0  0  0  0  0  0  0  0  0  0  0  0
  -26.3417   22.3788  -29.7695 O   0  0  0  0  0  0  0  0  0  0  0  0
  -29.0925   20.2331  -29.2672 C   0  0  1  0  0  0  0  0  0  0  0  0
  -29.9665   19.6670  -28.2689 O   0  0  0  0  0  0  0  0  0  0  0  0
  -29.9276   18.3416  -27.9385 C   0  0  0  0  0  0  0  0  0  0  0  0
  -29.5554   17.5355  -28.8283 O   0  0  0  0  0  0  0  0  0  0  0  0
  -30.2886   17.8037  -26.6266 C   0  0  0  0  0  0  0  0  0  0  0  0
  -30.2655   16.5058  -26.4020 C   0  0  0  0  0  0  0  0  0  0  0  0
  -31.3790   15.7343  -25.8766 C   0  0  0  0  0  0  0  0  0  0  0  0
  -32.6595   16.1176  -26.2409 C   0  0  0  0  0  0  0  0  0  0  0  0
  -33.7630   15.4259  -25.7868 C   0  0  0  0  0  0  0  0  0  0  0  0
  -33.6134   14.3361  -24.9594 C   0  0  0  0  0  0  0  0  0  0  0  0
  -34.7319   13.6292  -24.4950 O   0  0  0  0  0  0  0  0  0  0  0  0
  -32.3477   13.9607  -24.6024 C   0  0  0  0  0  0  0  0  0  0  0  0
  -32.2472   12.8421  -23.7571 O   0  0  0  0  0  0  0  0  0  0  0  0
  -31.2417   14.6468  -25.0518 C   0  0  0  0  0  0  0  0  0  0  0  0
  -29.7990   21.3556  -29.9339 C   0  0  0  0  0  0  0  0  0  0  0  0
  -29.3706   22.5572  -29.7699 O   0  0  0  0  0  0  0  0  0  0  0  0
  -30.9080   21.2481  -30.7385 O   0  0  0  0  0  0  0  0  0  0  0  0
  1  2  2  0
  2  3  1  0
  3  4  2  0
  4  5  1  0
  5  6  2  0
  6  7  1  0
  7  8  2  0
  8  9  1  0
  8 10  1  0
 10 11  1  0
 10 12  2  0
  2 13  1  0
 14 13  1  6
 14 15  1  0
 15 16  2  0
 15 17  1  0
 14 18  1  0
 18 19  1  1
 19 20  1  0
 20 21  2  0
 20 22  1  0
 22 23  2  0
 23 24  1  0
 24 25  2  0
 25 26  1  0
 26 27  2  0
 27 28  1  0
 27 29  1  0
 29 30  1  0
 29 31  2  0
 18 32  1  0
 32 33  2  0
 32 34  1  0
 12  5  1  0
 31 24  1  0
M  END
$$$$
