
     RDKit          3D

 28 30  0  0  0  0  0  0  0  0999 V2000
    2.6116   21.5195  -22.0941 O   0  0  0  0  0  0  0  0  0  0  0  0
    3.2903   21.5609  -21.0070 C   0  0  0  0  0  0  0  0  0  0  0  0
    4.3929   20.6061  -20.8366 C   0  0  0  0  0  0  0  0  0  0  0  0
    3.9276   19.3533  -20.3335 N   0  0  0  0  0  0  0  0  0  0  0  0
    3.3782   19.4596  -18.9916 C   0  0  0  0  0  0  0  0  0  0  0  0
    2.9626   18.1309  -18.4492 C   0  0  0  0  0  0  0  0  0  0  0  0
    2.1663   17.3913  -19.3757 N   0  0  0  0  0  0  0  0  0  0  0  0
    1.0058   16.6507  -18.9849 C   0  0  0  0  0  0  0  0  0  0  0  0
    0.2896   16.0768  -19.8194 O   0  0  0  0  0  0  0  0  0  0  0  0
    0.7091   16.6058  -17.5452 C   0  0  0  0  0  0  0  0  0  0  0  0
    1.0409   17.5558  -16.6242 C   0  0  0  0  0  0  0  0  0  0  0  0
    0.5610   17.0894  -15.3988 C   0  0  0  0  0  0  0  0  0  0  0  0
   -0.0387   15.8760  -15.6451 C   0  0  0  0  0  0  0  0  0  0  0  0
    0.0682   15.6226  -16.9254 O   0  0  0  0  0  0  0  0  0  0  0  0
    2.5509   17.3803  -20.7746 C   0  0  0  0  0  0  0  0  0  0  0  0
    2.9392   18.7407  -21.2042 C   0  0  0  0  0  0  0  0  0  0  0  0
    2.8746   22.5435  -20.0868 N   0  0  0  0  0  0  0  0  0  0  0  0
    2.5160   23.8635  -20.4814 C   0  0  0  0  0  0  0  0  0  0  0  0
    1.4212   24.0248  -21.2933 C   0  0  0  0  0  0  0  0  0  0  0  0
    1.0531   25.3137  -21.6960 C   0  0  0  0  0  0  0  0  0  0  0  0
   -0.1308   25.5152  -22.5740 C   0  0  0  0  0  0  0  0  0  0  0  0
   -1.2892   25.0179  -21.9894 F   0  0  0  0  0  0  0  0  0  0  0  0
    0.1480   24.8741  -23.7823 F   0  0  0  0  0  0  0  0  0  0  0  0
   -0.2753   26.8668  -22.7774 F   0  0  0  0  0  0  0  0  0  0  0  0
    1.8215   26.3642  -21.2491 C   0  0  0  0  0  0  0  0  0  0  0  0
    2.9184   26.2274  -20.4381 C   0  0  0  0  0  0  0  0  0  0  0  0
    3.2682   24.9262  -20.0471 C   0  0  0  0  0  0  0  0  0  0  0  0
    4.6451   24.6091  -19.0139 Cl  0  0  0  0  0  0  0  0  0  0  0  0
  1  2  2  0
  2  3  1  0
  3  4  1  0
  4  5  1  0
  5  6  1  0
  6  7  1  0
  7  8  1  0
  8  9  2  0
  8 10  1  0
 10 11  2  0
 11 12  1  0
 12 13  2  0
 13 14  1  0
  7 15  1  0
 15 16  1  0
  2 17  1  0
 17 18  1  0
 18 19  2  0
 19 20  1  0
 20 21  1  0
 21 22  1  0
 21 23  1  0
 21 24  1  0
 20 25  2  0
 25 26  1  0
 26 27  2  0
 27 28  1  0
 16  4  1  0
 27 18  1  0
 14 10  1  0
M  END
$$$$
