
     RDKit          3D

 27 29  0  0  0  0  0  0  0  0999 V2000
  -16.1450   46.4312  -22.2390 C   0  0  0  0  0  0  0  0  0  0  0  0
  -15.6804   45.2588  -21.6304 O   0  0  0  0  0  0  0  0  0  0  0  0
  -16.3671   44.0609  -21.6379 C   0  0  0  0  0  0  0  0  0  0  0  0
  -16.2337   43.1270  -20.6202 C   0  0  0  0  0  0  0  0  0  0  0  0
  -16.9444   41.9218  -20.6582 C   0  0  0  0  0  0  0  0  0  0  0  0
  -17.7795   41.6620  -21.7103 C   0  0  0  0  0  0  0  0  0  0  0  0
  -18.5270   40.3955  -21.7478 C   0  0  0  0  0  0  0  0  0  0  0  0
  -17.5626   39.3491  -21.7644 O   0  0  0  0  0  0  0  0  0  0  0  0
  -17.8740   38.0318  -22.0330 C   0  0  0  0  0  0  0  0  0  0  0  0
  -17.1541   37.0074  -21.4629 C   0  0  0  0  0  0  0  0  0  0  0  0
  -17.4675   35.6698  -21.7332 C   0  0  0  0  0  0  0  0  0  0  0  0
  -18.5075   35.3563  -22.5789 C   0  0  0  0  0  0  0  0  0  0  0  0
  -18.9122   33.9723  -22.9316 C   0  0  0  0  0  0  0  0  0  0  0  0
  -19.4590   33.1920  -21.8157 C   0  0  0  0  0  0  0  0  0  0  0  0
  -18.6587   32.1983  -21.2888 C   0  0  0  0  0  0  0  0  0  0  0  0
  -19.1012   31.4614  -20.2710 N   0  0  0  0  0  0  0  0  0  0  0  0
  -20.3269   31.6893  -19.7609 C   0  0  0  0  0  0  0  0  0  0  0  0
  -20.7972   30.9001  -18.6725 N   0  0  0  0  0  0  0  0  0  0  0  0
  -21.1008   32.6544  -20.2747 N   0  0  0  0  0  0  0  0  0  0  0  0
  -20.7139   33.4435  -21.3121 C   0  0  0  0  0  0  0  0  0  0  0  0
  -21.5747   34.4510  -21.8248 N   0  0  0  0  0  0  0  0  0  0  0  0
  -19.2142   36.4267  -23.1377 C   0  0  0  0  0  0  0  0  0  0  0  0
  -18.9150   37.7468  -22.8792 C   0  0  0  0  0  0  0  0  0  0  0  0
  -19.6407   38.7911  -23.4538 O   0  0  0  0  0  0  0  0  0  0  0  0
  -20.5905   38.5896  -24.4682 C   0  0  0  0  0  0  0  0  0  0  0  0
  -17.9273   42.5683  -22.7265 C   0  0  0  0  0  0  0  0  0  0  0  0
  -17.2149   43.7771  -22.6889 C   0  0  0  0  0  0  0  0  0  0  0  0
  1  2  1  0
  2  3  1  0
  3  4  2  0
  4  5  1  0
  5  6  2  0
  6  7  1  0
  7  8  1  0
  8  9  1  0
  9 10  2  0
 10 11  1  0
 11 12  2  0
 12 13  1  0
 13 14  1  0
 14 15  2  0
 15 16  1  0
 16 17  2  0
 17 18  1  0
 17 19  1  0
 19 20  2  0
 20 21  1  0
 12 22  1  0
 22 23  2  0
 23 24  1  0
 24 25  1  0
  6 26  1  0
 26 27  2  0
 27  3  1  0
 23  9  1  0
 20 14  1  0
M  END
$$$$
