
     RDKit          3D

 24 25  0  0  0  0  0  0  0  0999 V2000
  -13.0892   19.5212  -36.2990 C   0  0  0  0  0  0  0  0  0  0  0  0
  -14.1044   18.4773  -36.0726 C   0  0  0  0  0  0  0  0  0  0  0  0
  -14.0971   17.4515  -37.2219 C   0  0  0  0  0  0  0  0  0  0  0  0
  -14.3499   17.9215  -34.7462 C   0  0  0  0  0  0  0  0  0  0  0  0
  -15.4776   17.0851  -34.3798 C   0  0  0  0  0  0  0  0  0  0  0  0
  -15.8909   15.9399  -35.2143 C   0  0  0  0  0  0  0  0  0  0  0  0
  -15.4810   16.6778  -32.9381 C   0  0  0  0  0  0  0  0  0  0  0  0
  -14.1236   16.1608  -31.9771 S   0  0  0  0  0  0  0  0  0  0  0  0
  -15.0162   15.9347  -30.4377 C   0  0  0  0  0  0  0  0  0  0  0  0
  -16.2891   16.2737  -30.7804 C   0  0  0  0  0  0  0  0  0  0  0  0
  -16.5356   16.6490  -32.0459 C   0  0  0  0  0  0  0  0  0  0  0  0
  -17.9194   16.9994  -32.4387 N   0  0  0  0  0  0  0  0  0  0  0  0
  -18.9442   16.0516  -32.2019 C   0  0  0  0  0  0  0  0  0  0  0  0
  -18.5952   14.9529  -31.6508 O   0  0  0  0  0  0  0  0  0  0  0  0
  -20.3321   16.2062  -32.5152 C   0  0  0  0  0  0  0  0  0  0  0  0
  -20.9692   17.3396  -32.9201 C   0  0  0  0  0  0  0  0  0  0  0  0
  -22.2762   17.0454  -33.1368 N   0  0  0  0  0  0  0  0  0  0  0  0
  -23.3357   17.9194  -33.5828 C   0  0  0  0  0  0  0  0  0  0  0  0
  -22.4911   15.7551  -32.8770 N   0  0  0  0  0  0  0  0  0  0  0  0
  -21.3199   15.2162  -32.4950 C   0  0  0  0  0  0  0  0  0  0  0  0
  -21.1463   13.7916  -32.1111 C   0  0  0  0  0  0  0  0  0  0  0  0
  -19.9161   13.3263  -32.5283 F   0  0  0  0  0  0  0  0  0  0  0  0
  -21.3899   13.5611  -30.7689 F   0  0  0  0  0  0  0  0  0  0  0  0
  -22.0825   13.0150  -32.7941 F   0  0  0  0  0  0  0  0  0  0  0  0
  1  2  1  0
  2  3  1  0
  2  4  1  0
  4  5  1  0
  5  6  1  0
  5  7  1  0
  7  8  1  0
  8  9  1  0
  9 10  2  0
 10 11  1  0
 11 12  1  0
 12 13  1  0
 13 14  2  0
 13 15  1  0
 15 16  2  0
 16 17  1  0
 17 18  1  0
 17 19  1  0
 19 20  2  0
 20 21  1  0
 21 22  1  0
 21 23  1  0
 21 24  1  0
 11  7  2  0
 20 15  1  0
M  END
$$$$
