
     RDKit          3D

 26 28  0  0  0  0  0  0  0  0999 V2000
  -18.6370   -1.8341  -36.1247 C   0  0  0  0  0  0  0  0  0  0  0  0
  -19.3368   -1.1940  -35.0957 O   0  0  0  0  0  0  0  0  0  0  0  0
  -18.7487   -0.3645  -34.1542 C   0  0  0  0  0  0  0  0  0  0  0  0
  -17.5086   -0.6528  -33.6195 C   0  0  0  0  0  0  0  0  0  0  0  0
  -16.9011    0.1569  -32.6804 C   0  0  0  0  0  0  0  0  0  0  0  0
  -15.5752   -0.1538  -32.1093 C   0  0  0  0  0  0  0  0  0  0  0  0
  -14.4340   -0.0677  -32.8629 C   0  0  0  0  0  0  0  0  0  0  0  0
  -13.2064   -0.3635  -32.3146 C   0  0  0  0  0  0  0  0  0  0  0  0
  -11.9819   -0.2723  -33.1182 C   0  0  0  0  0  0  0  0  0  0  0  0
  -11.3631   -1.4053  -33.6022 C   0  0  0  0  0  0  0  0  0  0  0  0
  -10.2156   -1.3600  -34.3576 C   0  0  0  0  0  0  0  0  0  0  0  0
   -9.6732   -0.1220  -34.6340 C   0  0  0  0  0  0  0  0  0  0  0  0
  -10.2668    1.0341  -34.1651 C   0  0  0  0  0  0  0  0  0  0  0  0
   -9.6895    2.2622  -34.4651 O   0  0  0  0  0  0  0  0  0  0  0  0
  -11.4133    0.9445  -33.4133 C   0  0  0  0  0  0  0  0  0  0  0  0
  -13.1939   -0.7439  -30.9882 C   0  0  0  0  0  0  0  0  0  0  0  0
  -14.2985   -0.8317  -30.2428 N   0  0  0  0  0  0  0  0  0  0  0  0
  -15.4807   -0.5463  -30.7728 C   0  0  0  0  0  0  0  0  0  0  0  0
  -16.6864   -0.6270  -30.0062 N   0  0  0  0  0  0  0  0  0  0  0  0
  -17.5874    1.2852  -32.2865 C   0  0  0  0  0  0  0  0  0  0  0  0
  -18.8444    1.5867  -32.8220 C   0  0  0  0  0  0  0  0  0  0  0  0
  -19.5426    2.7218  -32.4309 O   0  0  0  0  0  0  0  0  0  0  0  0
  -19.1431    3.3415  -31.2249 C   0  0  0  0  0  0  0  0  0  0  0  0
  -19.4358    0.7642  -33.7605 C   0  0  0  0  0  0  0  0  0  0  0  0
  -20.6736    1.1121  -34.2515 O   0  0  0  0  0  0  0  0  0  0  0  0
  -20.9856    1.2907  -35.6060 C   0  0  0  0  0  0  0  0  0  0  0  0
  1  2  1  0
  2  3  1  0
  3  4  2  0
  4  5  1  0
  5  6  1  0
  6  7  2  0
  7  8  1  0
  8  9  1  0
  9 10  2  0
 10 11  1  0
 11 12  2  0
 12 13  1  0
 13 14  1  0
 13 15  2  0
  8 16  2  0
 16 17  1  0
 17 18  2  0
 18 19  1  0
  5 20  2  0
 20 21  1  0
 21 22  1  0
 22 23  1  0
 21 24  2  0
 24 25  1  0
 25 26  1  0
 24  3  1  0
 18  6  1  0
 15  9  1  0
M  END
$$$$
