
     RDKit          3D

 31 34  0  0  0  0  0  0  0  0999 V2000
  -21.4228   37.9425  -23.1392 C   0  0  0  0  0  0  0  0  0  0  0  0
  -20.0883   37.9251  -23.8030 C   0  0  0  0  0  0  0  0  0  0  0  0
  -19.0683   38.5654  -23.0366 N   0  0  0  0  0  0  0  0  0  0  0  0
  -18.1853   37.9078  -22.2347 C   0  0  0  0  0  0  0  0  0  0  0  0
  -18.0908   36.4936  -21.9984 C   0  0  0  0  0  0  0  0  0  0  0  0
  -18.9250   35.5401  -22.3998 N   0  0  0  0  0  0  0  0  0  0  0  0
  -18.4895   34.3674  -21.9890 O   0  0  0  0  0  0  0  0  0  0  0  0
  -17.3660   34.5333  -21.3140 N   0  0  0  0  0  0  0  0  0  0  0  0
  -17.0984   35.8526  -21.3072 C   0  0  0  0  0  0  0  0  0  0  0  0
  -15.9736   36.4445  -20.6830 N   0  0  0  0  0  0  0  0  0  0  0  0
  -17.3812   38.8639  -21.6753 N   0  0  0  0  0  0  0  0  0  0  0  0
  -17.7529   40.0774  -22.1169 C   0  0  0  0  0  0  0  0  0  0  0  0
  -17.2723   41.3428  -21.8600 C   0  0  0  0  0  0  0  0  0  0  0  0
  -16.1670   41.5192  -20.9700 C   0  0  0  0  0  0  0  0  0  0  0  0
  -15.2405   41.6518  -20.2074 C   0  0  0  0  0  0  0  0  0  0  0  0
  -14.1243   41.8049  -19.2683 C   0  0  0  0  0  0  0  0  0  0  0  0
  -14.1753   40.7243  -18.2101 C   0  0  0  0  0  0  0  0  0  0  0  0
  -12.8398   41.8088  -20.0316 C   0  0  0  0  0  0  0  0  0  0  0  0
  -14.2181   43.0397  -18.5885 O   0  0  0  0  0  0  0  0  0  0  0  0
  -17.8840   42.3645  -22.4787 N   0  0  0  0  0  0  0  0  0  0  0  0
  -18.9168   42.1905  -23.3129 C   0  0  0  0  0  0  0  0  0  0  0  0
  -19.4490   40.9507  -23.6162 C   0  0  0  0  0  0  0  0  0  0  0  0
  -20.4702   40.7166  -24.4286 O   0  0  0  0  0  0  0  0  0  0  0  0
  -21.5267   41.2450  -25.0366 C   0  0  0  0  0  0  0  0  0  0  0  0
  -21.9243   40.8792  -26.4119 C   0  0  1  0  0  0  0  0  0  0  0  0
  -22.4032   41.9192  -27.3409 C   0  0  0  0  0  0  0  0  0  0  0  0
  -22.7077   41.3087  -28.6975 C   0  0  0  0  0  0  0  0  0  0  0  0
  -22.5750   39.8159  -28.6235 C   0  0  0  0  0  0  0  0  0  0  0  0
  -21.3165   39.3510  -28.1332 N   0  0  0  0  0  0  0  0  0  0  0  0
  -20.7370   40.1930  -27.1023 C   0  0  0  0  0  0  0  0  0  0  0  0
  -18.8129   39.8688  -22.9702 C   0  0  0  0  0  0  0  0  0  0  0  0
  1  2  1  0
  2  3  1  0
  3  4  1  0
  4  5  1  0
  5  6  2  0
  6  7  1  0
  7  8  1  0
  8  9  2  0
  9 10  1  0
  4 11  2  0
 11 12  1  0
 12 13  2  0
 13 14  1  0
 14 15  3  0
 15 16  1  0
 16 17  1  0
 16 18  1  0
 16 19  1  0
 13 20  1  0
 20 21  2  0
 21 22  1  0
 22 23  1  0
 23 24  1  0
 25 24  1  1
 25 26  1  0
 26 27  1  0
 27 28  1  0
 28 29  1  0
 29 30  1  0
 22 31  2  0
 31  3  1  0
  9  5  1  0
 31 12  1  0
 30 25  1  0
M  END
$$$$
