
     RDKit          3D

 12 13  0  0  0  0  0  0  0  0999 V2000
  -18.2176   34.3969  -21.3062 S   0  0  0  0  0  0  0  0  0  0  0  0
  -18.6322   35.7115  -22.1733 C   0  0  0  0  0  0  0  0  0  0  0  0
  -19.5790   35.7572  -23.1374 N   0  0  0  0  0  0  0  0  0  0  0  0
  -19.6094   36.9961  -23.5935 N   0  0  0  0  0  0  0  0  0  0  0  0
  -18.6940   37.7212  -22.9257 C   0  0  0  0  0  0  0  0  0  0  0  0
  -18.3899   39.1388  -23.1082 C   0  0  0  0  0  0  0  0  0  0  0  0
  -17.4450   39.7477  -22.3097 C   0  0  0  0  0  0  0  0  0  0  0  0
  -17.1409   41.0911  -22.4655 C   0  0  0  0  0  0  0  0  0  0  0  0
  -17.7650   41.8682  -23.4172 C   0  0  0  0  0  0  0  0  0  0  0  0
  -18.7167   41.2418  -24.2168 C   0  0  0  0  0  0  0  0  0  0  0  0
  -19.0237   39.9015  -24.0652 C   0  0  0  0  0  0  0  0  0  0  0  0
  -18.1294   36.9195  -22.0847 O   0  0  0  0  0  0  0  0  0  0  0  0
  1  2  2  0
  2  3  1  0
  3  4  1  0
  4  5  2  0
  5  6  1  0
  6  7  2  0
  7  8  1  0
  8  9  2  0
  9 10  1  0
 10 11  2  0
  5 12  1  0
 12  2  1  0
 11  6  1  0
M  END
$$$$
