
     RDKit          3D

 17 19  0  0  0  0  0  0  0  0999 V2000
  -23.5098   26.7703  -35.8147 N   0  0  0  0  0  0  0  0  0  0  0  0
  -23.1618   26.0749  -36.9969 C   0  0  0  0  0  0  0  0  0  0  0  0
  -22.7914   26.7831  -37.9941 O   0  0  0  0  0  0  0  0  0  0  0  0
  -23.2173   24.5764  -37.0987 C   0  0  0  0  0  0  0  0  0  0  0  0
  -24.6442   24.1465  -36.8623 C   0  0  0  0  0  0  0  0  0  0  0  0
  -24.9207   22.7514  -37.3578 C   0  0  0  0  0  0  0  0  0  0  0  0
  -24.8807   22.8134  -38.8834 C   0  0  0  0  0  0  0  0  0  0  0  0
  -23.5265   23.3072  -39.2564 C   0  0  0  0  0  0  0  0  0  0  0  0
  -22.7674   24.1150  -38.4357 C   0  0  0  0  0  0  0  0  0  0  0  0
  -21.6250   24.3514  -39.0998 N   0  0  0  0  0  0  0  0  0  0  0  0
  -21.6254   23.7360  -40.2931 C   0  0  0  0  0  0  0  0  0  0  0  0
  -20.6764   23.6891  -41.3164 C   0  0  0  0  0  0  0  0  0  0  0  0
  -20.9515   22.9638  -42.4529 C   0  0  0  0  0  0  0  0  0  0  0  0
  -22.1610   22.2905  -42.5703 C   0  0  0  0  0  0  0  0  0  0  0  0
  -22.5391   21.3504  -44.0220 Cl  0  0  0  0  0  0  0  0  0  0  0  0
  -23.0939   22.3397  -41.5581 C   0  0  0  0  0  0  0  0  0  0  0  0
  -22.8240   23.0649  -40.4169 C   0  0  0  0  0  0  0  0  0  0  0  0
  1  2  1  0
  2  3  2  0
  2  4  1  0
  4  5  1  0
  5  6  1  0
  6  7  1  0
  7  8  1  0
  8  9  2  0
  9 10  1  0
 10 11  1  0
 11 12  2  0
 12 13  1  0
 13 14  2  0
 14 15  1  0
 14 16  1  0
 16 17  2  0
  9  4  1  0
 17 11  1  0
 17  8  1  0
M  END
$$$$
