
     RDKit          3D

 35 37  0  0  0  0  0  0  0  0999 V2000
  -26.7976   18.2175  -24.9030 O   0  0  0  0  0  0  0  0  0  0  0  0
  -26.2005   17.3557  -25.5885 C   0  0  0  0  0  0  0  0  0  0  0  0
  -25.0976   17.7940  -26.3705 N   0  0  0  0  0  0  0  0  0  0  0  0
  -24.5184   19.1088  -26.1864 C   0  0  0  0  0  0  0  0  0  0  0  0
  -24.8887   20.0757  -27.1629 N   0  0  0  0  0  0  0  0  0  0  0  0
  -26.2063   20.2758  -27.5926 C   0  0  0  0  0  0  0  0  0  0  0  0
  -26.4241   20.8124  -29.1526 S   0  0  0  0  0  0  0  0  0  0  0  0
  -27.3417   20.0586  -26.7958 N   0  0  0  0  0  0  0  0  0  0  0  0
  -28.6454   20.2425  -27.3450 C   0  0  0  0  0  0  0  0  0  0  0  0
  -29.7483   20.4173  -26.5138 C   0  0  0  0  0  0  0  0  0  0  0  0
  -31.0064   20.5746  -27.0457 C   0  0  0  0  0  0  0  0  0  0  0  0
  -31.2362   20.5653  -28.4047 C   0  0  0  0  0  0  0  0  0  0  0  0
  -32.4789   20.7245  -28.9447 F   0  0  0  0  0  0  0  0  0  0  0  0
  -30.1410   20.3921  -29.2364 C   0  0  0  0  0  0  0  0  0  0  0  0
  -30.3717   20.3847  -30.6441 N   0  0  0  0  0  4  0  0  0  0  0  0
  -31.5318   20.4696  -31.0772 O   0  0  0  0  0  0  0  0  0  0  0  0
  -29.2975   20.2737  -31.4960 O   0  0  0  0  0  1  0  0  0  0  0  0
  -28.8646   20.2343  -28.6965 C   0  0  0  0  0  0  0  0  0  0  0  0
  -23.0085   19.0612  -25.9690 C   0  0  0  0  0  0  0  0  0  0  0  0
  -22.6139   17.7448  -24.8091 Cl  0  0  0  0  0  0  0  0  0  0  0  0
  -22.4012   20.6141  -25.3797 Cl  0  0  0  0  0  0  0  0  0  0  0  0
  -22.1582   18.6753  -27.4788 Cl  0  0  0  0  0  0  0  0  0  0  0  0
  -26.6291   15.9200  -25.5884 C   0  0  0  0  0  0  0  0  0  0  0  0
  -27.9888   15.7485  -26.1343 C   0  0  0  0  0  0  0  0  0  0  0  0
  -28.5808   14.5111  -26.0924 C   0  0  0  0  0  0  0  0  0  0  0  0
  -29.8448   14.2683  -26.5779 C   0  0  0  0  0  0  0  0  0  0  0  0
  -30.5820   15.2848  -27.1401 C   0  0  0  0  0  0  0  0  0  0  0  0
  -29.9893   16.5365  -27.1860 C   0  0  0  0  0  0  0  0  0  0  0  0
  -28.7110   16.7705  -26.6898 C   0  0  0  0  0  0  0  0  0  0  0  0
  -25.6401   15.1120  -26.3846 C   0  0  0  0  0  0  0  0  0  0  0  0
  -25.6032   15.1811  -27.7464 C   0  0  0  0  0  0  0  0  0  0  0  0
  -24.6314   14.4161  -28.3803 C   0  0  0  0  0  0  0  0  0  0  0  0
  -23.7374   13.6212  -27.7083 C   0  0  0  0  0  0  0  0  0  0  0  0
  -23.8286   13.5925  -26.3138 C   0  0  0  0  0  0  0  0  0  0  0  0
  -24.7761   14.3343  -25.6548 C   0  0  0  0  0  0  0  0  0  0  0  0
  1  2  2  0
  2  3  1  0
  3  4  1  0
  4  5  1  0
  5  6  1  0
  6  7  2  0
  6  8  1  0
  8  9  1  0
  9 10  2  0
 10 11  1  0
 11 12  2  0
 12 13  1  0
 12 14  1  0
 14 15  1  0
 15 16  2  0
 15 17  1  0
 14 18  2  0
  4 19  1  0
 19 20  1  0
 19 21  1  0
 19 22  1  0
  2 23  1  0
 23 24  1  0
 24 25  2  0
 25 26  1  0
 26 27  2  0
 27 28  1  0
 28 29  2  0
 23 30  1  0
 30 31  2  0
 31 32  1  0
 32 33  2  0
 33 34  1  0
 34 35  2  0
 18  9  1  0
 29 24  1  0
 35 30  1  0
M  CHG  2  15   1  17  -1
M  END
$$$$
