
     RDKit          3D

 26 28  0  0  0  0  0  0  0  0999 V2000
  -21.4832    1.4785  -28.5894 C   0  0  0  0  0  0  0  0  0  0  0  0
  -21.7368    1.3599  -29.8629 C   0  0  0  0  0  0  0  0  0  0  0  0
  -23.0493    0.7719  -30.2741 C   0  0  0  0  0  0  0  0  0  0  0  0
  -20.7681    1.7882  -30.8644 C   0  0  0  0  0  0  0  0  0  0  0  0
  -20.0870    2.9755  -30.8361 C   0  0  0  0  0  0  0  0  0  0  0  0
  -19.1760    3.3339  -31.8133 C   0  0  0  0  0  0  0  0  0  0  0  0
  -18.9138    2.5053  -32.8638 C   0  0  0  0  0  0  0  0  0  0  0  0
  -19.5738    1.2999  -32.9366 C   0  0  0  0  0  0  0  0  0  0  0  0
  -19.3155    0.3719  -34.0661 C   0  0  0  0  0  0  0  0  0  0  0  0
  -18.9095    1.1203  -35.2918 C   0  0  0  0  0  0  0  0  0  0  0  0
  -20.6685   -0.2709  -34.3783 C   0  0  0  0  0  0  0  0  0  0  0  0
  -18.3425   -0.6376  -33.7037 N   0  0  0  0  0  0  0  0  0  0  0  0
  -17.0041   -0.3033  -33.4615 C   0  0  0  0  0  0  0  0  0  0  0  0
  -16.6159    0.8738  -33.6617 O   0  0  0  0  0  0  0  0  0  0  0  0
  -16.0407   -1.2669  -32.9856 N   0  0  0  0  0  0  0  0  0  0  0  0
  -14.7445   -0.8135  -32.6639 C   0  0  0  0  0  0  0  0  0  0  0  0
  -14.3222   -0.8586  -31.3644 C   0  0  0  0  0  0  0  0  0  0  0  0
  -13.0549   -0.4160  -31.0452 C   0  0  0  0  0  0  0  0  0  0  0  0
  -12.2040    0.0727  -32.0177 C   0  0  0  0  0  0  0  0  0  0  0  0
  -12.6453    0.1125  -33.3306 C   0  0  0  0  0  0  0  0  0  0  0  0
  -13.9270   -0.3356  -33.6499 C   0  0  0  0  0  0  0  0  0  0  0  0
  -11.7789    0.6057  -34.2937 O   0  0  0  0  0  0  0  0  0  0  0  0
  -10.4900    1.0822  -34.0297 C   0  0  0  0  0  0  0  0  0  0  0  0
   -9.9306    0.5988  -32.7185 C   0  0  0  0  0  0  0  0  0  0  0  0
  -10.9247    0.5218  -31.7104 O   0  0  0  0  0  0  0  0  0  0  0  0
  -20.4746    0.9612  -31.9573 C   0  0  0  0  0  0  0  0  0  0  0  0
  1  2  2  0
  2  3  1  0
  2  4  1  0
  4  5  2  0
  5  6  1  0
  6  7  2  0
  7  8  1  0
  8  9  1  0
  9 10  1  0
  9 11  1  0
  9 12  1  0
 12 13  1  0
 13 14  2  0
 13 15  1  0
 15 16  1  0
 16 17  2  0
 17 18  1  0
 18 19  2  0
 19 20  1  0
 20 21  2  0
 20 22  1  0
 22 23  1  0
 23 24  1  0
 24 25  1  0
  8 26  2  0
 26  4  1  0
 21 16  1  0
 25 19  1  0
M  END
$$$$
