
     RDKit          3D

 18 19  0  0  0  0  0  0  0  0999 V2000
  -17.5036   40.1364  -19.0709 O   0  0  0  0  0  0  0  0  0  0  0  0
  -17.7516   40.9212  -20.0505 C   0  0  0  0  0  0  0  0  0  0  0  0
  -17.4435   42.2913  -19.8507 N   0  0  0  0  0  0  0  0  0  0  0  0
  -16.1465   42.6794  -19.4025 C   0  0  0  0  0  0  0  0  0  0  0  0
  -15.5099   43.7997  -20.1557 C   0  0  0  0  0  0  0  0  0  0  0  0
  -14.1203   43.9382  -20.0900 N   0  0  0  0  0  0  0  0  0  0  0  0
  -13.7401   45.2905  -20.5582 C   0  0  0  0  0  0  0  0  0  0  0  0
  -14.1174   46.3465  -19.5991 C   0  0  0  0  0  0  0  0  0  0  0  0
  -14.2597   45.9846  -18.2985 O   0  0  0  0  0  0  0  0  0  0  0  0
  -13.6773   44.8312  -17.8837 C   0  0  0  0  0  0  0  0  0  0  0  0
  -13.3978   43.7840  -18.8812 C   0  0  0  0  0  0  0  0  0  0  0  0
  -18.3158   40.3582  -21.2588 C   0  0  0  0  0  0  0  0  0  0  0  0
  -18.1745   39.0304  -21.5702 C   0  0  0  0  0  0  0  0  0  0  0  0
  -18.7337   38.5308  -22.7477 C   0  0  0  0  0  0  0  0  0  0  0  0
  -19.4291   39.3339  -23.6152 C   0  0  0  0  0  0  0  0  0  0  0  0
  -20.1081   38.6543  -25.0765 Cl  0  0  0  0  0  0  0  0  0  0  0  0
  -19.5709   40.6706  -23.3007 C   0  0  0  0  0  0  0  0  0  0  0  0
  -19.0205   41.1554  -22.1445 C   0  0  0  0  0  0  0  0  0  0  0  0
  1  2  2  0
  2  3  1  0
  3  4  1  0
  4  5  1  0
  5  6  1  0
  6  7  1  0
  7  8  1  0
  8  9  1  0
  9 10  1  0
 10 11  1  0
  2 12  1  0
 12 13  2  0
 13 14  1  0
 14 15  2  0
 15 16  1  0
 15 17  1  0
 17 18  2  0
 11  6  1  0
 18 12  1  0
M  END
$$$$
