
     RDKit          3D

 32 35  0  0  0  0  0  0  0  0999 V2000
  -19.0860   18.0537  -34.8459 O   0  0  0  0  0  0  0  0  0  0  0  0
  -18.6940   16.9412  -35.2691 C   0  0  0  0  0  0  0  0  0  0  0  0
  -18.9263   16.5890  -36.6101 N   0  0  0  0  0  0  0  0  0  0  0  0
  -19.9070   17.2811  -37.3747 C   0  0  0  0  0  0  0  0  0  0  0  0
  -19.7042   18.5817  -37.7859 C   0  0  0  0  0  0  0  0  0  0  0  0
  -20.6608   19.2659  -38.5355 C   0  0  0  0  0  0  0  0  0  0  0  0
  -21.8379   18.6232  -38.8725 C   0  0  0  0  0  0  0  0  0  0  0  0
  -22.0649   17.3283  -38.4758 C   0  0  0  0  0  0  0  0  0  0  0  0
  -23.3405   16.6654  -38.8539 C   0  0  0  0  0  0  0  0  0  0  0  0
  -24.2533   17.5383  -39.3853 F   0  0  0  0  0  0  0  0  0  0  0  0
  -23.8786   16.1145  -37.6985 F   0  0  0  0  0  0  0  0  0  0  0  0
  -23.1111   15.5975  -39.7127 F   0  0  0  0  0  0  0  0  0  0  0  0
  -21.0939   16.6803  -37.7332 C   0  0  0  0  0  0  0  0  0  0  0  0
  -18.0239   16.0976  -34.3277 N   0  0  0  0  0  0  0  0  0  0  0  0
  -17.6150   16.5412  -33.0575 C   0  0  0  0  0  0  0  0  0  0  0  0
  -17.0176   17.8046  -32.9090 C   0  0  0  0  0  0  0  0  0  0  0  0
  -16.6225   18.2764  -31.6722 C   0  0  0  0  0  0  0  0  0  0  0  0
  -15.8788   19.8612  -31.5303 S   0  0  0  0  0  6  0  0  0  0  0  0
  -14.9847   20.0624  -32.7192 O   0  0  0  0  0  0  0  0  0  0  0  0
  -15.0393   19.8681  -30.2818 O   0  0  0  0  0  0  0  0  0  0  0  0
  -17.0831   21.1029  -31.4763 N   0  0  0  0  0  0  0  0  0  0  0  0
  -17.9041   21.0021  -30.3109 C   0  0  0  0  0  0  0  0  0  0  0  0
  -18.8423   22.1831  -29.9997 C   0  0  0  0  0  0  0  0  0  0  0  0
  -19.3879   20.8621  -30.4408 C   0  0  0  0  0  0  0  0  0  0  0  0
  -16.8321   17.4662  -30.5775 C   0  0  0  0  0  0  0  0  0  0  0  0
  -17.4273   16.1972  -30.6945 C   0  0  0  0  0  0  0  0  0  0  0  0
  -17.7999   15.7818  -31.9526 C   0  0  0  0  0  0  0  0  0  0  0  0
  -18.4384   14.4266  -32.1549 C   0  0  0  0  0  0  0  0  0  0  0  0
  -19.6069   14.1156  -31.6073 C   0  0  0  0  0  0  0  0  0  0  0  0
  -20.1988   12.8873  -31.7636 C   0  0  0  0  0  0  0  0  0  0  0  0
  -18.9763   12.0296  -32.8156 S   0  0  0  0  0  0  0  0  0  0  0  0
  -17.8199   13.4469  -32.9078 C   0  0  0  0  0  0  0  0  0  0  0  0
  1  2  2  0
  2  3  1  0
  3  4  1  0
  4  5  2  0
  5  6  1  0
  6  7  2  0
  7  8  1  0
  8  9  1  0
  9 10  1  0
  9 11  1  0
  9 12  1  0
  8 13  2  0
  2 14  1  0
 14 15  1  0
 15 16  2  0
 16 17  1  0
 17 18  1  0
 18 19  2  0
 18 20  2  0
 18 21  1  0
 21 22  1  0
 22 23  1  0
 23 24  1  0
 17 25  2  0
 25 26  1  0
 26 27  2  0
 27 28  1  0
 28 29  1  0
 29 30  2  0
 30 31  1  0
 31 32  1  0
 13  4  1  0
 27 15  1  0
 32 28  2  0
 24 22  1  0
M  END
$$$$
