
     RDKit          3D

 31 36  0  0  0  0  0  0  0  0999 V2000
  -16.4754   21.7738  -31.6351 C   0  0  0  0  0  0  0  0  0  0  0  0
  -15.4956   20.8322  -31.4176 C   0  0  0  0  0  0  0  0  0  0  0  0
  -16.0719   19.6328  -31.6591 N   0  0  0  0  0  0  0  0  0  0  0  0
  -15.5482   18.3773  -31.5915 C   0  0  0  0  0  0  0  0  0  0  0  0
  -16.3481   17.3036  -31.8882 C   0  0  0  0  0  0  0  0  0  0  0  0
  -15.8620   15.9297  -31.8467 C   0  0  0  0  0  0  0  0  0  0  0  0
  -16.5150   14.9223  -32.4891 C   0  0  0  0  0  0  0  0  0  0  0  0
  -15.9982   13.6281  -32.4026 C   0  0  0  0  0  0  0  0  0  0  0  0
  -14.8514   13.3702  -31.6835 C   0  0  0  0  0  0  0  0  0  0  0  0
  -14.1473   12.2180  -31.4419 C   0  0  0  0  0  0  0  0  0  0  0  0
  -13.1092   12.5699  -30.6728 N   0  0  0  0  0  0  0  0  0  0  0  0
  -13.1232   13.8661  -30.4213 N   0  0  0  0  0  0  0  0  0  0  0  0
  -14.1929   14.3877  -31.0356 C   0  0  0  0  0  0  0  0  0  0  0  0
  -14.7007   15.6532  -31.1218 C   0  0  0  0  0  0  0  0  0  0  0  0
  -17.6383   17.4981  -32.2419 N   0  0  0  0  0  0  0  0  0  0  0  0
  -18.1304   18.7388  -32.3017 C   0  0  0  0  0  0  0  0  0  0  0  0
  -19.4714   18.9541  -32.6678 N   0  0  0  0  0  0  0  0  0  0  0  0
  -20.2974   17.8499  -32.9778 C   0  0  0  0  0  0  0  0  0  0  0  0
  -19.9607   17.0282  -34.0295 C   0  0  0  0  0  0  0  0  0  0  0  0
  -20.7799   15.9371  -34.3335 C   0  0  0  0  0  0  0  0  0  0  0  0
  -21.8997   15.6995  -33.5880 C   0  0  0  0  0  0  0  0  0  0  0  0
  -22.7321   14.5791  -33.8910 N   0  0  0  0  0  0  0  0  0  0  0  0
  -23.0605   14.1636  -35.2291 C   0  0  0  0  0  0  0  0  0  0  0  0
  -24.5460   13.7649  -35.1986 C   0  0  0  0  0  0  0  0  0  0  0  0
  -24.6153   12.6581  -34.3677 O   0  0  0  0  0  0  0  0  0  0  0  0
  -24.4058   12.9608  -33.0400 C   0  0  0  0  0  0  0  0  0  0  0  0
  -23.2606   13.8464  -32.7511 C   0  0  0  0  0  0  0  0  0  0  0  0
  -22.2295   16.5439  -32.5214 C   0  0  0  0  0  0  0  0  0  0  0  0
  -21.4345   17.6116  -32.2176 C   0  0  0  0  0  0  0  0  0  0  0  0
  -17.3457   19.8359  -32.0079 C   0  0  0  0  0  0  0  0  0  0  0  0
  -17.6247   21.1455  -32.0025 N   0  0  0  0  0  0  0  0  0  0  0  0
  1  2  2  0
  2  3  1  0
  3  4  1  0
  4  5  2  0
  5  6  1  0
  6  7  2  0
  7  8  1  0
  8  9  2  0
  9 10  1  0
 10 11  2  0
 11 12  1  0
 12 13  1  0
 13 14  2  0
  5 15  1  0
 15 16  2  0
 16 17  1  0
 17 18  1  0
 18 19  2  0
 19 20  1  0
 20 21  2  0
 21 22  1  0
 22 23  1  0
 23 24  1  0
 24 25  1  0
 25 26  1  0
 26 27  1  0
 21 28  1  0
 28 29  2  0
 16 30  1  0
 30 31  2  0
 31  1  1  0
 30  3  1  0
 14  6  1  0
 29 18  1  0
 13  9  1  0
 27 22  1  0
M  END
$$$$
