
     RDKit          3D

 21 23  0  0  0  0  0  0  0  0999 V2000
  -13.8672    2.7436  -30.8605 O   0  0  0  0  0  0  0  0  0  0  0  0
  -13.7545    1.5917  -31.3719 C   0  0  0  0  0  0  0  0  0  0  0  0
  -12.4287    1.1509  -31.7176 N   0  0  0  0  0  0  0  0  0  0  0  0
  -12.2587   -0.1424  -32.2963 C   0  0  0  0  0  0  0  0  0  0  0  0
  -10.9839   -0.5851  -32.6744 C   0  0  0  0  0  0  0  0  0  0  0  0
  -10.7891   -1.8109  -33.2632 C   0  0  0  0  0  0  0  0  0  0  0  0
  -11.8774   -2.6252  -33.4876 C   0  0  0  0  0  0  0  0  0  0  0  0
  -11.6464   -4.1809  -34.2507 Cl  0  0  0  0  0  0  0  0  0  0  0  0
  -13.1269   -2.1605  -33.1000 C   0  0  0  0  0  0  0  0  0  0  0  0
  -13.3433   -0.9337  -32.5079 C   0  0  0  0  0  0  0  0  0  0  0  0
  -14.7037   -0.5221  -32.1213 C   0  0  1  0  0  0  0  0  0  0  0  0
  -15.5907   -0.5769  -33.3037 C   0  0  0  0  0  0  0  0  0  0  0  0
  -16.3044   -0.6200  -34.2572 C   0  0  0  0  0  0  0  0  0  0  0  0
  -17.1723   -0.6841  -35.4561 C   0  0  0  0  0  0  0  0  0  0  0  0
  -17.5016    0.6049  -36.0614 C   0  0  0  0  0  0  0  0  0  0  0  0
  -18.5460   -0.0442  -35.2135 C   0  0  0  0  0  0  0  0  0  0  0  0
  -15.2625   -1.4547  -31.0346 C   0  0  0  0  0  0  0  0  0  0  0  0
  -15.5194   -2.6976  -31.5190 F   0  0  0  0  0  0  0  0  0  0  0  0
  -16.4541   -0.8917  -30.6196 F   0  0  0  0  0  0  0  0  0  0  0  0
  -14.4190   -1.4625  -29.9379 F   0  0  0  0  0  0  0  0  0  0  0  0
  -14.7992    0.7599  -31.6114 O   0  0  0  0  0  0  0  0  0  0  0  0
  1  2  2  0
  2  3  1  0
  3  4  1  0
  4  5  2  0
  5  6  1  0
  6  7  2  0
  7  8  1  0
  7  9  1  0
  9 10  2  0
 10 11  1  0
 11 12  1  6
 12 13  3  0
 13 14  1  0
 14 15  1  0
 15 16  1  0
 11 17  1  0
 17 18  1  0
 17 19  1  0
 17 20  1  0
 11 21  1  0
 21  2  1  0
 10  4  1  0
 16 14  1  0
M  END
$$$$
