
     RDKit          3D

 15 15  0  0  0  0  0  0  0  0999 V2000
  -18.4641   34.4937  -20.8100 N   0  0  0  0  0  0  0  0  0  0  0  0
  -18.1386   34.2099  -22.1924 C   0  0  0  0  0  0  0  0  0  0  0  0
  -17.3614   35.3853  -22.7443 C   0  0  0  0  0  0  0  0  0  0  0  0
  -18.0213   36.6811  -22.4345 C   0  0  0  0  0  0  0  0  0  0  0  0
  -17.4611   37.5782  -21.5477 C   0  0  0  0  0  0  0  0  0  0  0  0
  -18.0603   38.7866  -21.2482 C   0  0  0  0  0  0  0  0  0  0  0  0
  -17.4905   39.6884  -20.3525 O   0  0  0  0  0  0  0  0  0  0  0  0
  -19.2556   39.1570  -21.8252 C   0  0  0  0  0  0  0  0  0  0  0  0
  -19.8718   40.3767  -21.5305 O   0  0  0  0  0  0  0  0  0  0  0  0
  -19.8238   38.2680  -22.7127 C   0  0  0  0  0  0  0  0  0  0  0  0
  -19.2180   37.0541  -23.0110 C   0  0  0  0  0  0  0  0  0  0  0  0
  -19.8142   36.1708  -23.9136 O   0  0  0  0  0  0  0  0  0  0  0  0
  -17.2866   33.0151  -22.3051 C   0  0  0  0  0  0  0  0  0  0  0  0
  -17.0006   32.5515  -23.4299 O   0  0  0  0  0  0  0  0  0  0  0  0
  -16.7883   32.3849  -21.1819 O   0  0  0  0  0  0  0  0  0  0  0  0
  1  2  1  0
  2  3  1  0
  3  4  1  0
  4  5  2  0
  5  6  1  0
  6  7  1  0
  6  8  2  0
  8  9  1  0
  8 10  1  0
 10 11  2  0
 11 12  1  0
  2 13  1  0
 13 14  2  0
 13 15  1  0
 11  4  1  0
M  END
$$$$
