
     RDKit          3D

 20 22  0  0  0  0  0  0  0  0999 V2000
  -17.0829   36.4737  -20.8787 O   0  0  0  0  0  0  0  0  0  0  0  0
  -17.9177   36.6986  -21.7816 C   0  0  0  0  0  0  0  0  0  0  0  0
  -18.5569   35.7145  -22.4905 C   0  0  0  0  0  0  0  0  0  0  0  0
  -18.2549   34.3163  -22.1839 C   0  0  0  0  0  0  0  0  0  0  0  0
  -17.1011   33.7231  -22.6651 C   0  0  0  0  0  0  0  0  0  0  0  0
  -16.7693   32.4120  -22.4066 C   0  0  0  0  0  0  0  0  0  0  0  0
  -17.6368   31.6798  -21.6348 C   0  0  0  0  0  0  0  0  0  0  0  0
  -17.3256   30.3534  -21.3587 O   0  0  0  0  0  0  0  0  0  0  0  0
  -18.8000   32.2365  -21.1353 C   0  0  0  0  0  0  0  0  0  0  0  0
  -19.1110   33.5524  -21.4079 C   0  0  0  0  0  0  0  0  0  0  0  0
  -19.4521   36.1011  -23.4566 C   0  0  0  0  0  0  0  0  0  0  0  0
  -19.7060   37.3624  -23.7130 O   0  0  0  0  0  0  0  0  0  0  0  0
  -19.1224   38.3560  -23.0643 C   0  0  0  0  0  0  0  0  0  0  0  0
  -19.4060   39.6757  -23.3522 C   0  0  0  0  0  0  0  0  0  0  0  0
  -20.3285   39.9603  -24.3494 O   0  0  0  0  0  0  0  0  0  0  0  0
  -18.7970   40.7115  -22.6752 C   0  0  0  0  0  0  0  0  0  0  0  0
  -19.0691   42.0537  -22.9503 O   0  0  0  0  0  0  0  0  0  0  0  0
  -17.8877   40.3554  -21.6934 C   0  0  0  0  0  0  0  0  0  0  0  0
  -17.5958   39.0546  -21.3963 C   0  0  0  0  0  0  0  0  0  0  0  0
  -18.2124   38.0258  -22.0814 C   0  0  0  0  0  0  0  0  0  0  0  0
  1  2  2  0
  2  3  1  0
  3  4  1  0
  4  5  2  0
  5  6  1  0
  6  7  2  0
  7  8  1  0
  7  9  1  0
  9 10  2  0
  3 11  2  0
 11 12  1  0
 12 13  1  0
 13 14  2  0
 14 15  1  0
 14 16  1  0
 16 17  1  0
 16 18  2  0
 18 19  1  0
 19 20  2  0
 20  2  1  0
 10  4  1  0
 20 13  1  0
M  END
$$$$
