
     RDKit          3D

 25 27  0  0  0  0  0  0  0  0999 V2000
  -23.2295   16.3099  -39.1423 C   0  0  0  0  0  0  0  0  0  0  0  0
  -23.4567   17.7031  -39.1972 O   0  0  0  0  0  0  0  0  0  0  0  0
  -23.0372   18.5255  -38.1643 C   0  0  0  0  0  0  0  0  0  0  0  0
  -21.9949   18.1739  -37.3270 C   0  0  0  0  0  0  0  0  0  0  0  0
  -21.5818   19.0101  -36.2908 C   0  0  0  0  0  0  0  0  0  0  0  0
  -20.4952   18.6346  -35.4244 N   0  0  0  0  0  0  0  0  0  0  0  0
  -20.0813   19.4602  -34.3470 C   0  0  0  0  0  0  0  0  0  0  0  0
  -20.7777   20.4597  -34.0509 O   0  0  0  0  0  0  0  0  0  0  0  0
  -18.8639   19.1826  -33.5672 C   0  0  0  0  0  0  0  0  0  0  0  0
  -18.3998   19.9567  -32.5359 C   0  0  0  0  0  0  0  0  0  0  0  0
  -17.2487   19.3737  -32.0658 C   0  0  0  0  0  0  0  0  0  0  0  0
  -17.0514   18.2485  -32.8403 C   0  0  0  0  0  0  0  0  0  0  0  0
  -15.9278   17.3348  -32.6689 C   0  0  0  0  0  0  0  0  0  0  0  0
  -15.5405   16.4369  -33.6315 C   0  0  0  0  0  0  0  0  0  0  0  0
  -14.4539   15.5846  -33.4108 C   0  0  0  0  0  0  0  0  0  0  0  0
  -13.7796   15.6713  -32.1951 C   0  0  0  0  0  0  0  0  0  0  0  0
  -12.4160   14.5792  -31.9575 Cl  0  0  0  0  0  0  0  0  0  0  0  0
  -14.1525   16.5623  -31.2220 C   0  0  0  0  0  0  0  0  0  0  0  0
  -15.2256   17.3782  -31.4853 C   0  0  0  0  0  0  0  0  0  0  0  0
  -18.0316   18.1880  -33.7052 O   0  0  0  0  0  0  0  0  0  0  0  0
  -22.2577   20.2031  -36.1370 C   0  0  0  0  0  0  0  0  0  0  0  0
  -23.2941   20.5907  -36.9422 C   0  0  0  0  0  0  0  0  0  0  0  0
  -23.9070   21.7976  -36.7124 O   0  0  0  0  0  0  0  0  0  0  0  0
  -25.0154   22.2730  -37.4440 C   0  0  0  0  0  0  0  0  0  0  0  0
  -23.6742   19.7275  -37.9633 C   0  0  0  0  0  0  0  0  0  0  0  0
  1  2  1  0
  2  3  1  0
  3  4  2  0
  4  5  1  0
  5  6  1  0
  6  7  1  0
  7  8  2  0
  7  9  1  0
  9 10  2  0
 10 11  1  0
 11 12  2  0
 12 13  1  0
 13 14  2  0
 14 15  1  0
 15 16  2  0
 16 17  1  0
 16 18  1  0
 18 19  2  0
 12 20  1  0
  5 21  2  0
 21 22  1  0
 22 23  1  0
 23 24  1  0
 22 25  2  0
 25  3  1  0
 20  9  1  0
 19 13  1  0
M  END
$$$$
