
     RDKit          3D

 27 29  0  0  0  0  0  0  0  0999 V2000
  -23.4974   15.9034  -36.3014 C   0  0  0  0  0  0  0  0  0  0  0  0
  -22.8719   15.1509  -35.2486 N   0  0  0  0  0  0  0  0  0  0  0  0
  -23.1738   13.8332  -35.1131 N   0  0  0  0  0  0  0  0  0  0  0  0
  -22.4446   13.2711  -34.1748 C   0  0  0  0  0  0  0  0  0  0  0  0
  -21.6279   14.2599  -33.6670 C   0  0  0  0  0  0  0  0  0  0  0  0
  -20.4902   14.0597  -32.3493 Cl  0  0  0  0  0  0  0  0  0  0  0  0
  -21.9373   15.4327  -34.3786 C   0  0  0  0  0  0  0  0  0  0  0  0
  -21.1388   16.7059  -34.2670 C   0  0  0  0  0  0  0  0  0  0  0  0
  -19.8269   16.7220  -34.5454 C   0  0  0  0  0  0  0  0  0  0  0  0
  -19.0384   17.7624  -34.2974 C   0  0  0  0  0  0  0  0  0  0  0  0
  -17.6207   18.0184  -34.5041 C   0  0  0  0  0  0  0  0  0  0  0  0
  -17.0859   19.1015  -34.1419 O   0  0  0  0  0  0  0  0  0  0  0  0
  -16.7770   17.0583  -35.1235 N   0  0  0  0  0  0  0  0  0  0  0  0
  -15.4345   17.4426  -35.5004 C   0  0  2  0  0  0  0  0  0  0  0  0
  -15.5090   17.8719  -36.9521 C   0  0  0  0  0  0  0  0  0  0  0  0
  -14.2748   18.3929  -37.4176 N   0  0  0  0  0  0  0  0  0  0  0  0
  -14.4346   16.3202  -35.4050 C   0  0  0  0  0  0  0  0  0  0  0  0
  -14.4296   15.8448  -33.9986 C   0  0  0  0  0  0  0  0  0  0  0  0
  -14.8870   14.5464  -33.7315 C   0  0  0  0  0  0  0  0  0  0  0  0
  -14.9050   14.0462  -32.4539 C   0  0  0  0  0  0  0  0  0  0  0  0
  -14.4694   14.8221  -31.4090 C   0  0  0  0  0  0  0  0  0  0  0  0
  -14.0029   16.1244  -31.6195 C   0  0  0  0  0  0  0  0  0  0  0  0
  -13.5785   16.8700  -30.5728 F   0  0  0  0  0  0  0  0  0  0  0  0
  -14.0076   16.5724  -32.9193 C   0  0  0  0  0  0  0  0  0  0  0  0
  -20.2383   18.9191  -33.5729 S   0  0  0  0  0  0  0  0  0  0  0  0
  -21.7037   17.8343  -33.6887 C   0  0  0  0  0  0  0  0  0  0  0  0
  -23.1289   18.4155  -33.0450 Cl  0  0  0  0  0  0  0  0  0  0  0  0
  1  2  1  0
  2  3  1  0
  3  4  2  0
  4  5  1  0
  5  6  1  0
  5  7  2  0
  7  8  1  0
  8  9  1  0
  9 10  2  0
 10 11  1  0
 11 12  2  0
 11 13  1  0
 13 14  1  0
 14 15  1  6
 15 16  1  0
 14 17  1  0
 17 18  1  0
 18 19  2  0
 19 20  1  0
 20 21  2  0
 21 22  1  0
 22 23  1  0
 22 24  2  0
 10 25  1  0
 25 26  1  0
 26 27  1  0
  7  2  1  0
 26  8  2  0
 24 18  1  0
M  END
$$$$
