
     RDKit          3D

 30 32  0  0  0  0  0  0  0  0999 V2000
  -22.4374   21.5401  -34.5400 C   0  0  0  0  0  0  0  0  0  0  0  0
  -21.4003   20.4682  -34.3534 C   0  0  0  0  0  0  0  0  0  0  0  0
  -20.6689   20.7063  -33.1853 O   0  0  0  0  0  0  0  0  0  0  0  0
  -19.6111   19.9629  -32.7053 C   0  0  0  0  0  0  0  0  0  0  0  0
  -19.4155   18.6641  -33.1098 C   0  0  0  0  0  0  0  0  0  0  0  0
  -18.3564   17.9598  -32.6103 C   0  0  0  0  0  0  0  0  0  0  0  0
  -18.1172   16.6234  -33.1176 C   0  0  0  0  0  0  0  0  0  0  0  0
  -17.7594   15.5786  -32.4120 C   0  0  0  0  0  0  0  0  0  0  0  0
  -16.6921   15.5147  -31.3850 C   0  0  0  0  0  0  0  0  0  0  0  0
  -16.0230   16.5192  -31.0475 O   0  0  0  0  0  0  0  0  0  0  0  0
  -16.6407   14.1710  -30.9426 N   0  0  0  0  0  0  0  0  0  0  0  0
  -15.7477   13.6653  -29.9496 C   0  0  0  0  0  0  0  0  0  0  0  0
  -15.4020   14.3407  -28.8120 C   0  0  0  0  0  0  0  0  0  0  0  0
  -14.5356   13.8361  -27.8613 C   0  0  0  0  0  0  0  0  0  0  0  0
  -13.9964   12.5900  -28.0756 C   0  0  0  0  0  0  0  0  0  0  0  0
  -14.3146   11.8689  -29.2087 C   0  0  0  0  0  0  0  0  0  0  0  0
  -15.1808   12.4009  -30.1355 C   0  0  0  0  0  0  0  0  0  0  0  0
  -17.6078   13.4726  -31.6526 N   0  0  0  0  0  0  0  0  0  0  0  0
  -18.2557   14.2248  -32.4867 C   0  0  0  0  0  0  0  0  0  0  0  0
  -19.3287   13.7620  -33.4309 C   0  0  0  0  0  0  0  0  0  0  0  0
  -17.5179   18.5755  -31.7149 C   0  0  0  0  0  0  0  0  0  0  0  0
  -17.7168   19.8986  -31.3012 C   0  0  0  0  0  0  0  0  0  0  0  0
  -16.6641   20.6019  -30.0888 Cl  0  0  0  0  0  0  0  0  0  0  0  0
  -18.7621   20.6070  -31.7917 C   0  0  0  0  0  0  0  0  0  0  0  0
  -19.0533   21.8869  -31.4631 O   0  0  0  0  0  0  0  0  0  0  0  0
  -20.2173   22.5570  -31.1846 C   0  0  0  0  0  0  0  0  0  0  0  0
  -20.8161   22.5026  -29.8549 C   0  0  0  0  0  0  0  0  0  0  0  0
  -20.1453   21.9200  -28.9151 O   0  0  0  0  0  0  0  0  0  0  0  0
  -22.0250   23.0058  -29.4969 O   0  0  0  0  0  0  0  0  0  0  0  0
  -22.6955   22.6142  -28.3067 C   0  0  0  0  0  0  0  0  0  0  0  0
  1  2  1  0
  2  3  1  0
  3  4  1  0
  4  5  2  0
  5  6  1  0
  6  7  1  0
  7  8  2  0
  8  9  1  0
  9 10  2  0
  9 11  1  0
 11 12  1  0
 12 13  2  0
 13 14  1  0
 14 15  2  0
 15 16  1  0
 16 17  2  0
 11 18  1  0
 18 19  2  0
 19 20  1  0
  6 21  2  0
 21 22  1  0
 22 23  1  0
 22 24  2  0
 24 25  1  0
 25 26  1  0
 26 27  1  0
 27 28  2  0
 27 29  1  0
 29 30  1  0
 24  4  1  0
 19  8  1  0
 17 12  1  0
M  END
$$$$
