
     RDKit          3D

 24 26  0  0  0  0  0  0  0  0999 V2000
  -26.4538   16.6528  -28.0905 O   0  0  0  0  0  0  0  0  0  0  0  0
  -26.0887   16.9071  -26.9000 C   0  0  0  0  0  0  0  0  0  0  0  0
  -26.8397   17.8434  -26.1731 N   0  0  0  0  0  0  0  0  0  0  0  0
  -27.5006   18.9664  -26.7555 C   0  0  0  0  0  0  0  0  0  0  0  0
  -28.8809   18.6466  -27.3189 C   0  0  0  0  0  0  0  0  0  0  0  0
  -29.4406   17.4902  -26.5295 C   0  0  0  0  0  0  0  0  0  0  0  0
  -29.3797   16.2123  -27.2445 C   0  0  0  0  0  0  0  0  0  0  0  0
  -29.2712   15.0052  -26.5427 C   0  0  0  0  0  0  0  0  0  0  0  0
  -29.2181   13.8639  -27.2873 C   0  0  0  0  0  0  0  0  0  0  0  0
  -29.2673   13.8767  -28.6612 C   0  0  0  0  0  0  0  0  0  0  0  0
  -29.3748   15.0726  -29.3590 C   0  0  0  0  0  0  0  0  0  0  0  0
  -29.4299   16.2372  -28.6237 C   0  0  0  0  0  0  0  0  0  0  0  0
  -30.8218   17.7674  -26.0550 C   0  0  0  0  0  0  0  0  0  0  0  0
  -31.1531   17.4899  -24.7233 C   0  0  0  0  0  0  0  0  0  0  0  0
  -32.4298   17.7412  -24.2733 C   0  0  0  0  0  0  0  0  0  0  0  0
  -33.4081   18.2610  -25.0888 C   0  0  0  0  0  0  0  0  0  0  0  0
  -33.0509   18.5235  -26.3945 C   0  0  0  0  0  0  0  0  0  0  0  0
  -31.7831   18.2849  -26.8801 C   0  0  0  0  0  0  0  0  0  0  0  0
  -24.9016   16.2008  -26.3653 C   0  0  0  0  0  0  0  0  0  0  0  0
  -23.7695   16.0586  -27.1267 C   0  0  0  0  0  0  0  0  0  0  0  0
  -22.6702   15.4094  -26.6431 C   0  0  0  0  0  0  0  0  0  0  0  0
  -22.7041   14.8938  -25.3763 C   0  0  0  0  0  0  0  0  0  0  0  0
  -23.8226   15.0427  -24.6442 N   0  0  0  0  0  0  0  0  0  0  0  0
  -24.9176   15.6755  -25.0928 C   0  0  0  0  0  0  0  0  0  0  0  0
  1  2  2  0
  2  3  1  0
  3  4  1  0
  4  5  1  0
  5  6  1  0
  6  7  1  0
  7  8  2  0
  8  9  1  0
  9 10  2  0
 10 11  1  0
 11 12  2  0
  6 13  1  0
 13 14  2  0
 14 15  1  0
 15 16  2  0
 16 17  1  0
 17 18  2  0
  2 19  1  0
 19 20  2  0
 20 21  1  0
 21 22  2  0
 22 23  1  0
 23 24  2  0
 12  7  1  0
 18 13  1  0
 24 19  1  0
M  END
$$$$
