
     RDKit          3D

 25 27  0  0  0  0  0  0  0  0999 V2000
  -20.3992   44.6891  -23.9692 C   0  0  0  0  0  0  0  0  0  0  0  0
  -19.3739   44.2196  -23.1523 O   0  0  0  0  0  0  0  0  0  0  0  0
  -19.0536   42.8948  -22.9614 C   0  0  0  0  0  0  0  0  0  0  0  0
  -20.0274   41.9381  -23.2490 C   0  0  0  0  0  0  0  0  0  0  0  0
  -19.7386   40.5937  -23.0678 C   0  0  0  0  0  0  0  0  0  0  0  0
  -18.4967   40.2122  -22.6066 C   0  0  0  0  0  0  0  0  0  0  0  0
  -18.2441   38.7599  -22.4314 C   0  0  2  0  0  0  0  0  0  0  0  0
  -16.8353   38.5207  -22.7444 C   0  0  0  0  0  0  0  0  0  0  0  0
  -15.6950   38.3362  -22.9788 N   0  0  0  0  0  0  0  0  0  0  0  0
  -19.1244   37.9977  -23.3705 C   0  0  0  0  0  0  0  0  0  0  0  0
  -19.3626   36.5850  -23.0586 C   0  0  0  0  0  0  0  0  0  0  0  0
  -19.1919   36.1678  -21.6331 C   0  0  1  0  0  0  0  0  0  0  0  0
  -18.9486   34.7075  -21.5198 C   0  0  0  0  0  0  0  0  0  0  0  0
  -18.8454   33.9763  -22.5220 O   0  0  0  0  0  0  0  0  0  0  0  0
  -18.8292   34.1166  -20.2685 O   0  0  0  0  0  0  0  0  0  0  0  0
  -18.0587   36.8771  -20.9333 C   0  0  0  0  0  0  0  0  0  0  0  0
  -18.4366   38.3649  -20.9845 C   0  0  0  0  0  0  0  0  0  0  0  0
  -17.5578   41.1879  -22.3326 C   0  0  0  0  0  0  0  0  0  0  0  0
  -17.8081   42.5296  -22.5000 C   0  0  0  0  0  0  0  0  0  0  0  0
  -16.8927   43.5174  -22.2350 O   0  0  0  0  0  0  0  0  0  0  0  0
  -15.9880   43.5891  -21.1840 C   0  0  0  0  0  0  0  0  0  0  0  0
  -16.2071   44.7484  -20.2620 C   0  0  0  0  0  0  0  0  0  0  0  0
  -15.2906   45.8738  -20.7050 C   0  0  0  0  0  0  0  0  0  0  0  0
  -14.6808   45.4087  -22.0114 C   0  0  0  0  0  0  0  0  0  0  0  0
  -14.6190   43.9119  -21.7905 C   0  0  0  0  0  0  0  0  0  0  0  0
  1  2  1  0
  2  3  1  0
  3  4  2  0
  4  5  1  0
  5  6  2  0
  6  7  1  0
  7  8  1  6
  8  9  3  0
  7 10  1  0
 10 11  1  0
 11 12  1  0
 12 13  1  6
 13 14  2  0
 13 15  1  0
 12 16  1  0
 16 17  1  0
  6 18  1  0
 18 19  2  0
 19 20  1  0
 20 21  1  0
 21 22  1  0
 22 23  1  0
 23 24  1  0
 24 25  1  0
 19  3  1  0
 25 21  1  0
 17  7  1  0
M  END
$$$$
