
     RDKit          3D

 31 33  0  0  0  0  0  0  0  0999 V2000
  -17.4179   18.1901  -37.9625 C   0  0  0  0  0  0  0  0  0  0  0  0
  -16.8742   17.0392  -37.6246 C   0  0  0  0  0  0  0  0  0  0  0  0
  -17.1566   16.4065  -36.3515 C   0  0  0  0  0  0  0  0  0  0  0  0
  -16.9959   17.0967  -35.3018 O   0  0  0  0  0  0  0  0  0  0  0  0
  -17.5994   15.0622  -36.2630 N   0  0  0  0  0  0  0  0  0  0  0  0
  -17.6756   14.5366  -34.9255 C   0  0  0  0  0  0  0  0  0  0  0  0
  -18.7615   13.7670  -34.5628 C   0  0  0  0  0  0  0  0  0  0  0  0
  -18.9037   13.2456  -33.2926 C   0  0  0  0  0  0  0  0  0  0  0  0
  -17.9279   13.4986  -32.3466 C   0  0  0  0  0  0  0  0  0  0  0  0
  -16.8201   14.2716  -32.6835 C   0  0  0  0  0  0  0  0  0  0  0  0
  -15.8107   14.5342  -31.7260 N   0  0  0  0  0  0  0  0  0  0  0  0
  -15.7184   15.7662  -31.0565 C   0  0  0  0  0  0  0  0  0  0  0  0
  -16.5900   16.7782  -31.2797 N   0  0  0  0  0  0  0  0  0  0  0  0
  -16.5608   17.9706  -30.6864 C   0  0  0  0  0  0  0  0  0  0  0  0
  -17.4481   19.0421  -30.9563 N   0  0  0  0  0  0  0  0  0  0  0  0
  -18.4103   19.1128  -31.9716 C   0  0  0  0  0  0  0  0  0  0  0  0
  -19.2696   18.1033  -32.3431 C   0  0  0  0  0  0  0  0  0  0  0  0
  -20.1989   18.2399  -33.3258 C   0  0  0  0  0  0  0  0  0  0  0  0
  -20.3380   19.4569  -34.0366 C   0  0  0  0  0  0  0  0  0  0  0  0
  -21.2365   19.5559  -34.9737 O   0  0  0  0  0  0  0  0  0  0  0  0
  -22.4603   19.4347  -35.4650 C   0  0  0  0  0  0  0  0  0  0  0  0
  -23.0574   20.5531  -36.2771 C   0  0  0  0  0  0  0  0  0  0  0  0
  -24.3359   20.3398  -36.7419 O   0  0  0  0  0  0  0  0  0  0  0  0
  -25.2140   20.3860  -35.6372 C   0  0  0  0  0  0  0  0  0  0  0  0
  -19.4745   20.4864  -33.6693 C   0  0  0  0  0  0  0  0  0  0  0  0
  -18.5492   20.3140  -32.6753 C   0  0  0  0  0  0  0  0  0  0  0  0
  -15.5534   18.1751  -29.7725 N   0  0  0  0  0  0  0  0  0  0  0  0
  -14.6602   17.2316  -29.4998 C   0  0  0  0  0  0  0  0  0  0  0  0
  -14.7214   16.0072  -30.1347 C   0  0  0  0  0  0  0  0  0  0  0  0
  -13.8033   15.0504  -29.8706 F   0  0  0  0  0  0  0  0  0  0  0  0
  -16.7084   14.7867  -33.9859 C   0  0  0  0  0  0  0  0  0  0  0  0
  1  2  2  0
  2  3  1  0
  3  4  2  0
  3  5  1  0
  5  6  1  0
  6  7  2  0
  7  8  1  0
  8  9  2  0
  9 10  1  0
 10 11  1  0
 11 12  1  0
 12 13  2  0
 13 14  1  0
 14 15  1  0
 15 16  1  0
 16 17  2  0
 17 18  1  0
 18 19  2  0
 19 20  1  0
 20 21  1  0
 21 22  1  0
 22 23  1  0
 23 24  1  0
 19 25  1  0
 25 26  2  0
 14 27  2  0
 27 28  1  0
 28 29  2  0
 29 30  1  0
 10 31  2  0
 31  6  1  0
 29 12  1  0
 26 16  1  0
M  END
$$$$
