
     RDKit          3D

 19 21  0  0  0  0  0  0  0  0999 V2000
  -29.3722   25.6272  -32.7133 C   0  0  0  0  0  0  0  0  0  0  0  0
  -29.0118   24.2966  -32.9746 O   0  0  0  0  0  0  0  0  0  0  0  0
  -28.7040   23.3531  -32.0248 C   0  0  0  0  0  0  0  0  0  0  0  0
  -29.1059   22.0529  -32.2464 C   0  0  0  0  0  0  0  0  0  0  0  0
  -28.8262   21.0498  -31.3247 C   0  0  0  0  0  0  0  0  0  0  0  0
  -28.1447   21.2973  -30.1615 C   0  0  0  0  0  0  0  0  0  0  0  0
  -27.8263   20.2833  -29.1638 C   0  0  0  0  0  0  0  0  0  0  0  0
  -27.2135   20.6210  -27.9842 C   0  0  0  0  0  0  0  0  0  0  0  0
  -26.9048   19.6501  -27.0207 C   0  0  0  0  0  0  0  0  0  0  0  0
  -26.3515   19.9170  -25.9432 O   0  0  0  0  0  0  0  0  0  0  0  0
  -27.2520   18.3547  -27.3320 C   0  0  0  0  0  0  0  0  0  0  0  0
  -26.9996   17.2994  -26.4595 C   0  0  0  0  0  0  0  0  0  0  0  0
  -27.3368   15.9928  -26.7461 C   0  0  0  0  0  0  0  0  0  0  0  0
  -27.9520   15.7024  -27.9463 C   0  0  0  0  0  0  0  0  0  0  0  0
  -28.2124   16.7314  -28.8268 C   0  0  0  0  0  0  0  0  0  0  0  0
  -27.8673   18.0532  -28.5286 C   0  0  0  0  0  0  0  0  0  0  0  0
  -28.1174   19.0267  -29.3696 O   0  0  0  0  0  0  0  0  0  0  0  0
  -27.7409   22.6187  -29.9450 C   0  0  0  0  0  0  0  0  0  0  0  0
  -28.0179   23.6121  -30.8578 C   0  0  0  0  0  0  0  0  0  0  0  0
  1  2  1  0
  2  3  1  0
  3  4  2  0
  4  5  1  0
  5  6  2  0
  6  7  1  0
  7  8  2  0
  8  9  1  0
  9 10  2  0
  9 11  1  0
 11 12  2  0
 12 13  1  0
 13 14  2  0
 14 15  1  0
 15 16  2  0
 16 17  1  0
  6 18  1  0
 18 19  2  0
 19  3  1  0
 17  7  1  0
 16 11  1  0
M  END
$$$$
