
     RDKit          3D

 42 44  0  0  0  0  0  0  0  0999 V2000
  -22.2392   42.6523  -29.6855 C   0  0  0  0  0  0  0  0  0  0  0  0
  -21.7369   41.9250  -28.5859 O   0  0  0  0  0  0  0  0  0  0  0  0
  -22.0215   40.5721  -28.5027 C   0  0  0  0  0  0  0  0  0  0  0  0
  -22.7776   39.9641  -29.4768 C   0  0  0  0  0  0  0  0  0  0  0  0
  -23.0953   38.6082  -29.4449 C   0  0  0  0  0  0  0  0  0  0  0  0
  -23.8955   38.0385  -30.4905 C   0  0  0  0  0  0  0  0  0  0  0  0
  -24.1970   38.8068  -31.4775 O   0  0  0  0  0  0  0  0  0  0  0  0
  -24.4066   36.7309  -30.5869 N   0  0  0  0  0  0  0  0  0  0  0  0
  -25.2145   36.3007  -31.7346 C   0  0  0  0  0  0  0  0  0  0  0  0
  -24.5313   35.1326  -32.4107 C   0  0  0  0  0  0  0  0  0  0  0  0
  -25.5621   34.4524  -33.2882 C   0  0  0  0  0  0  0  0  0  0  0  0
  -26.6497   33.8786  -32.5552 N   0  0  0  0  0  0  0  0  0  0  0  0
  -26.6534   32.4472  -32.5092 C   0  0  0  0  0  0  0  0  0  0  0  0
  -26.7745   34.4348  -31.2391 C   0  0  0  0  0  0  0  0  0  0  0  0
  -26.5903   35.9361  -31.2432 C   0  0  0  0  0  0  0  0  0  0  0  0
  -22.6014   37.9230  -28.3752 C   0  0  0  0  0  0  0  0  0  0  0  0
  -22.8543   36.5962  -28.2616 F   0  0  0  0  0  0  0  0  0  0  0  0
  -21.8330   38.5016  -27.3696 C   0  0  0  0  0  0  0  0  0  0  0  0
  -21.5308   39.8305  -27.4155 C   0  0  0  0  0  0  0  0  0  0  0  0
  -20.7677   40.5146  -26.4690 N   0  0  0  0  0  0  0  0  0  0  0  0
  -20.1828   39.9898  -25.3092 C   0  0  0  0  0  0  0  0  0  0  0  0
  -20.3177   38.7121  -24.9696 N   0  0  0  0  0  0  0  0  0  0  0  0
  -19.7636   38.1897  -23.8661 C   0  0  0  0  0  0  0  0  0  0  0  0
  -19.0241   39.0301  -23.0591 C   0  0  0  0  0  0  0  0  0  0  0  0
  -18.8528   40.3671  -23.3666 C   0  0  0  0  0  0  0  0  0  0  0  0
  -19.4451   40.7987  -24.4910 N   0  0  0  0  0  0  0  0  0  0  0  0
  -18.1380   41.3915  -22.6754 N   0  0  0  0  0  0  0  0  0  0  0  0
  -18.1055   42.6303  -23.3684 C   0  0  0  0  0  0  0  0  0  0  0  0
  -16.7158   43.1144  -23.7094 C   0  0  0  0  0  0  0  0  0  0  0  0
  -17.0702   44.4983  -24.2762 C   0  0  0  0  0  0  0  0  0  0  0  0
  -18.2487   44.9681  -23.4429 C   0  0  0  0  0  0  0  0  0  0  0  0
  -18.6219   43.7946  -22.5449 C   0  0  0  0  0  0  0  0  0  0  0  0
  -17.4922   41.2471  -21.3978 C   0  0  0  0  0  0  0  0  0  0  0  0
  -16.6434   40.0332  -21.2464 C   0  0  0  0  0  0  0  0  0  0  0  0
  -15.6797   39.9626  -22.2418 F   0  0  0  0  0  0  0  0  0  0  0  0
  -15.9323   40.1835  -20.0500 F   0  0  0  0  0  0  0  0  0  0  0  0
  -17.4025   38.7633  -21.1333 C   0  0  0  0  0  0  0  0  0  0  0  0
  -17.0575   37.9422  -20.2345 O   0  0  0  0  0  0  0  0  0  0  0  0
  -18.4983   38.3459  -21.9320 N   0  0  0  0  0  0  0  0  0  0  0  0
  -19.1665   37.0893  -21.5757 C   0  0  0  0  0  0  0  0  0  0  0  0
  -21.6868   38.7366  -27.3728 Cl  0  0  0  0  0  0  0  0  0  0  0  0
  -21.6828   38.7398  -27.3681 Cl  0  0  0  0  0  0  0  0  0  0  0  0
  1  2  1  0
  2  3  1  0
  3  4  2  0
  4  5  1  0
  5  6  1  0
  6  7  2  0
  6  8  1  0
  8  9  1  0
  9 10  1  0
 10 11  1  0
 11 12  1  0
 12 13  1  0
 12 14  1  0
 14 15  1  0
  5 16  2  0
 16 17  1  0
 16 18  1  0
 18 19  2  0
 19 20  1  0
 20 21  1  0
 21 22  2  0
 22 23  1  0
 23 24  2  0
 24 25  1  0
 25 26  2  0
 25 27  1  0
 27 28  1  0
 28 29  1  0
 29 30  1  0
 30 31  1  0
 31 32  1  0
 27 33  1  0
 33 34  1  0
 34 35  1  0
 34 36  1  0
 34 37  1  0
 37 38  2  0
 37 39  1  0
 39 40  1  0
 19  3  1  0
 26 21  1  0
 32 28  1  0
 15  9  1  0
 39 24  1  0
M  END
$$$$
