
     RDKit          3D

 27 30  0  0  0  0  0  0  0  0999 V2000
  -12.4547   12.5302  -25.3001 O   0  0  0  0  0  0  0  0  0  0  0  0
  -13.6953   12.4390  -25.5311 N   0  0  0  0  0  4  0  0  0  0  0  0
  -14.4616   11.8105  -24.5852 O   0  0  0  0  0  1  0  0  0  0  0  0
  -14.2109   12.9814  -26.7403 C   0  0  0  0  0  0  0  0  0  0  0  0
  -13.3560   13.3554  -27.7519 C   0  0  0  0  0  0  0  0  0  0  0  0
  -13.8003   13.8906  -28.9371 C   0  0  0  0  0  0  0  0  0  0  0  0
  -15.1707   14.0636  -29.1301 C   0  0  0  0  0  0  0  0  0  0  0  0
  -15.6347   14.6511  -30.4044 C   0  0  0  0  0  0  0  0  0  0  0  0
  -14.8772   15.3390  -31.2580 N   0  0  0  0  0  0  0  0  0  0  0  0
  -15.5999   15.7332  -32.3157 C   0  0  0  0  0  0  0  0  0  0  0  0
  -15.1413   16.5047  -33.4747 C   0  0  0  0  0  0  0  0  0  0  0  0
  -14.8332   17.8399  -33.3927 C   0  0  0  0  0  0  0  0  0  0  0  0
  -14.4088   18.5379  -34.5237 C   0  0  0  0  0  0  0  0  0  0  0  0
  -14.2866   17.9115  -35.7464 C   0  0  0  0  0  0  0  0  0  0  0  0
  -13.8738   18.5830  -36.8495 F   0  0  0  0  0  0  0  0  0  0  0  0
  -14.5930   16.5741  -35.8358 C   0  0  0  0  0  0  0  0  0  0  0  0
  -15.0121   15.9001  -34.7076 C   0  0  0  0  0  0  0  0  0  0  0  0
  -16.8845   15.2506  -32.0865 C   0  0  0  0  0  0  0  0  0  0  0  0
  -18.0420   15.4083  -32.9508 C   0  0  0  0  0  0  0  0  0  0  0  0
  -18.0080   14.9845  -34.2555 C   0  0  0  0  0  0  0  0  0  0  0  0
  -19.1127   15.1192  -35.0859 C   0  0  0  0  0  0  0  0  0  0  0  0
  -20.2388   15.6687  -34.6253 N   0  0  0  0  0  0  0  0  0  0  0  0
  -20.3209   16.1003  -33.3514 C   0  0  0  0  0  0  0  0  0  0  0  0
  -19.2280   15.9729  -32.5104 C   0  0  0  0  0  0  0  0  0  0  0  0
  -16.8675   14.5970  -30.9130 N   0  0  0  0  0  0  0  0  0  0  0  0
  -16.0387   13.6941  -28.1278 C   0  0  0  0  0  0  0  0  0  0  0  0
  -15.5699   13.1521  -26.9298 C   0  0  0  0  0  0  0  0  0  0  0  0
  1  2  2  0
  2  3  1  0
  2  4  1  0
  4  5  2  0
  5  6  1  0
  6  7  2  0
  7  8  1  0
  8  9  2  0
  9 10  1  0
 10 11  1  0
 11 12  2  0
 12 13  1  0
 13 14  2  0
 14 15  1  0
 14 16  1  0
 16 17  2  0
 10 18  2  0
 18 19  1  0
 19 20  2  0
 20 21  1  0
 21 22  2  0
 22 23  1  0
 23 24  2  0
 18 25  1  0
  7 26  1  0
 26 27  2  0
 27  4  1  0
 25  8  1  0
 17 11  1  0
 24 19  1  0
M  CHG  2   2   1   3  -1
M  END
$$$$
