
     RDKit          3D

 21 22  0  0  0  0  0  0  0  0999 V2000
  -31.0446   15.0658  -25.7668 N   0  0  0  0  0  0  0  0  0  0  0  0
  -29.3816   15.5082  -25.5250 S   0  0  0  0  0  6  0  0  0  0  0  0
  -29.0336   15.2111  -24.0960 O   0  0  0  0  0  0  0  0  0  0  0  0
  -28.4670   14.6542  -26.3651 O   0  0  0  0  0  0  0  0  0  0  0  0
  -29.1463   17.2033  -25.9154 C   0  0  0  0  0  0  0  0  0  0  0  0
  -30.0686   17.9770  -26.5622 C   0  0  0  0  0  0  0  0  0  0  0  0
  -29.8844   19.3389  -26.8380 C   0  0  0  0  0  0  0  0  0  0  0  0
  -28.7275   19.9639  -26.4532 C   0  0  0  0  0  0  0  0  0  0  0  0
  -28.4312   21.4088  -26.6896 C   0  0  0  0  0  0  0  0  0  0  0  0
  -29.2275   22.0147  -27.7104 N   0  0  0  0  0  0  0  0  0  0  0  0
  -29.0145   21.9212  -29.0998 C   0  0  0  0  0  0  0  0  0  0  0  0
  -28.0642   21.2491  -29.5636 O   0  0  0  0  0  0  0  0  0  0  0  0
  -29.9082   22.6225  -30.0854 C   0  0  0  0  0  0  0  0  0  0  0  0
  -29.0128   23.3373  -31.0152 C   0  0  0  0  0  0  0  0  0  0  0  0
  -28.2179   24.3726  -30.6232 C   0  0  0  0  0  0  0  0  0  0  0  0
  -27.3953   25.0046  -31.5657 C   0  0  0  0  0  0  0  0  0  0  0  0
  -27.4085   24.5657  -32.8675 C   0  0  0  0  0  0  0  0  0  0  0  0
  -28.2277   23.5035  -33.2552 C   0  0  0  0  0  0  0  0  0  0  0  0
  -29.0279   22.8918  -32.3299 C   0  0  0  0  0  0  0  0  0  0  0  0
  -27.7797   19.1749  -25.7926 C   0  0  0  0  0  0  0  0  0  0  0  0
  -27.9587   17.8420  -25.5203 C   0  0  0  0  0  0  0  0  0  0  0  0
  1  2  1  0
  2  3  2  0
  2  4  2  0
  2  5  1  0
  5  6  2  0
  6  7  1  0
  7  8  2  0
  8  9  1  0
  9 10  1  0
 10 11  1  0
 11 12  2  0
 11 13  1  0
 13 14  1  0
 14 15  2  0
 15 16  1  0
 16 17  2  0
 17 18  1  0
 18 19  2  0
  8 20  1  0
 20 21  2  0
 21  5  1  0
 19 14  1  0
M  END
$$$$
