
     RDKit          3D

 26 28  0  0  0  0  0  0  0  0999 V2000
  -20.7476   45.9805  -23.1766 C   0  0  0  0  0  0  0  0  0  0  0  0
  -20.8518   44.5707  -23.1483 O   0  0  0  0  0  0  0  0  0  0  0  0
  -19.6823   43.8314  -23.1973 C   0  0  0  0  0  0  0  0  0  0  0  0
  -18.4462   44.4260  -23.3292 C   0  0  0  0  0  0  0  0  0  0  0  0
  -17.2752   43.7035  -23.3789 C   0  0  0  0  0  0  0  0  0  0  0  0
  -17.2966   42.3303  -23.2970 C   0  0  0  0  0  0  0  0  0  0  0  0
  -18.5199   41.7101  -23.1647 C   0  0  0  0  0  0  0  0  0  0  0  0
  -18.5218   40.2634  -23.0808 C   0  0  0  0  0  0  0  0  0  0  0  0
  -19.3781   39.5404  -23.8716 C   0  0  0  0  0  0  0  0  0  0  0  0
  -19.3910   38.1486  -23.8069 C   0  0  0  0  0  0  0  0  0  0  0  0
  -18.5456   37.4864  -22.9498 C   0  0  0  0  0  0  0  0  0  0  0  0
  -18.5620   36.0880  -22.8927 N   0  0  0  0  0  0  0  0  0  0  0  0
  -19.7992   35.4147  -22.5543 C   0  0  0  0  0  0  0  0  0  0  0  0
  -20.8128   36.1197  -22.3708 O   0  0  0  0  0  0  0  0  0  0  0  0
  -19.8648   33.9672  -22.4316 C   0  0  0  0  0  0  0  0  0  0  0  0
  -19.0587   33.1358  -21.8274 C   0  0  0  0  0  0  0  0  0  0  0  0
  -17.8472   33.4357  -21.0953 C   0  0  0  0  0  0  0  0  0  0  0  0
  -17.2280   34.5191  -21.0664 O   0  0  0  0  0  0  0  0  0  0  0  0
  -17.2531   32.4161  -20.3027 O   0  0  0  0  0  0  0  0  0  0  0  0
  -19.5746   31.7135  -21.9902 C   0  0  0  0  0  0  0  0  0  0  0  0
  -21.0680   31.9915  -22.1329 C   0  0  0  0  0  0  0  0  0  0  0  0
  -21.0015   33.1814  -23.0629 C   0  0  0  0  0  0  0  0  0  0  0  0
  -17.6893   38.1988  -22.1579 C   0  0  0  0  0  0  0  0  0  0  0  0
  -16.8629   37.5498  -21.3193 F   0  0  0  0  0  0  0  0  0  0  0  0
  -17.6828   39.5777  -22.2282 C   0  0  0  0  0  0  0  0  0  0  0  0
  -19.6796   42.4495  -23.1168 C   0  0  0  0  0  0  0  0  0  0  0  0
  1  2  1  0
  2  3  1  0
  3  4  2  0
  4  5  1  0
  5  6  2  0
  6  7  1  0
  7  8  1  0
  8  9  2  0
  9 10  1  0
 10 11  2  0
 11 12  1  0
 12 13  1  0
 13 14  2  0
 13 15  1  0
 15 16  2  0
 16 17  1  0
 17 18  2  0
 17 19  1  0
 16 20  1  0
 20 21  1  0
 21 22  1  0
 11 23  1  0
 23 24  1  0
 23 25  2  0
  7 26  2  0
 26  3  1  0
 25  8  1  0
 22 15  1  0
M  END
$$$$
