
     RDKit          3D

 26 28  0  0  0  0  0  0  0  0999 V2000
  -16.5205   15.8445  -30.5863 O   0  0  0  0  0  0  0  0  0  0  0  0
  -16.9224   15.2156  -31.6127 C   0  0  0  0  0  0  0  0  0  0  0  0
  -16.1460   14.1316  -32.0630 N   0  0  0  0  0  0  0  0  0  0  0  0
  -14.8967   13.7794  -31.4292 C   0  0  0  0  0  0  0  0  0  0  0  0
  -14.8403   13.0371  -30.2730 C   0  0  0  0  0  0  0  0  0  0  0  0
  -16.3247   12.5007  -29.5439 Cl  0  0  0  0  0  0  0  0  0  0  0  0
  -13.6286   12.7050  -29.6732 C   0  0  0  0  0  0  0  0  0  0  0  0
  -12.4859   13.1319  -30.2562 N   0  0  0  0  0  0  0  0  0  0  0  0
  -12.4890   13.8599  -31.3864 C   0  0  0  0  0  0  0  0  0  0  0  0
  -13.7094   14.1925  -31.9878 C   0  0  0  0  0  0  0  0  0  0  0  0
  -13.7291   15.1389  -33.4581 Cl  0  0  0  0  0  0  0  0  0  0  0  0
  -18.1492   15.6702  -32.2332 C   0  0  0  0  0  0  0  0  0  0  0  0
  -18.7647   14.9382  -33.2198 C   0  0  0  0  0  0  0  0  0  0  0  0
  -19.9531   15.3932  -33.8104 C   0  0  0  0  0  0  0  0  0  0  0  0
  -20.5093   16.5835  -33.3994 C   0  0  0  0  0  0  0  0  0  0  0  0
  -21.6682   17.0653  -33.9485 O   0  0  0  0  0  0  0  0  0  0  0  0
  -22.8989   17.2496  -33.3138 C   0  0  0  0  0  0  0  0  0  0  0  0
  -23.4203   16.0377  -32.8448 F   0  0  0  0  0  0  0  0  0  0  0  0
  -23.8519   17.7434  -34.2158 F   0  0  0  0  0  0  0  0  0  0  0  0
  -19.9108   17.3545  -32.3982 C   0  0  0  0  0  0  0  0  0  0  0  0
  -20.4823   18.5521  -31.9937 O   0  0  0  0  0  0  0  0  0  0  0  0
  -19.8036   19.3017  -31.0147 C   0  0  0  0  0  0  0  0  0  0  0  0
  -19.0921   20.4979  -31.5902 C   0  0  0  0  0  0  0  0  0  0  0  0
  -19.4073   21.8669  -31.2030 C   0  0  0  0  0  0  0  0  0  0  0  0
  -18.1872   21.2543  -30.5929 C   0  0  0  0  0  0  0  0  0  0  0  0
  -18.7514   16.8641  -31.8547 C   0  0  0  0  0  0  0  0  0  0  0  0
  1  2  2  0
  2  3  1  0
  3  4  1  0
  4  5  2  0
  5  6  1  0
  5  7  1  0
  7  8  2  0
  8  9  1  0
  9 10  2  0
 10 11  1  0
  2 12  1  0
 12 13  2  0
 13 14  1  0
 14 15  2  0
 15 16  1  0
 16 17  1  0
 17 18  1  0
 17 19  1  0
 15 20  1  0
 20 21  1  0
 21 22  1  0
 22 23  1  0
 23 24  1  0
 24 25  1  0
 20 26  2  0
 10  4  1  0
 26 12  1  0
 25 23  1  0
M  END
$$$$
