
     RDKit          3D

 28 30  0  0  0  0  0  0  0  0999 V2000
  -19.6701   39.6447  -24.7580 C   0  0  0  0  0  0  0  0  0  0  0  0
  -19.6863   38.5497  -25.8465 C   0  0  0  0  0  0  0  0  0  0  0  0
  -20.7146   39.0376  -26.8518 C   0  0  0  0  0  0  0  0  0  0  0  0
  -20.0574   37.2265  -25.2252 C   0  0  0  0  0  0  0  0  0  0  0  0
  -18.8587   36.5670  -24.6366 C   0  0  0  0  0  0  0  0  0  0  0  0
  -19.2023   35.4814  -23.7401 N   0  0  0  0  0  0  0  0  0  0  0  0
  -19.0785   35.7367  -22.3266 C   0  0  0  0  0  0  0  0  0  0  0  0
  -18.4589   36.8284  -21.8652 N   0  0  0  0  0  0  0  0  0  0  0  0
  -18.3247   37.1040  -20.5289 C   0  0  0  0  0  0  0  0  0  0  0  0
  -17.6439   38.2834  -20.1444 N   0  0  0  0  0  0  0  0  0  0  0  0
  -17.5678   39.4469  -20.9172 C   0  0  0  0  0  0  0  0  0  0  0  0
  -17.5072   40.7399  -20.4897 C   0  0  0  0  0  0  0  0  0  0  0  0
  -17.4192   41.7928  -21.4126 C   0  0  0  0  0  0  0  0  0  0  0  0
  -17.3621   43.0522  -20.9348 F   0  0  0  0  0  0  0  0  0  0  0  0
  -17.3909   41.5777  -22.7646 C   0  0  0  0  0  0  0  0  0  0  0  0
  -17.3039   42.6135  -23.6888 O   0  0  0  0  0  0  0  0  0  0  0  0
  -17.4516   40.2831  -23.2085 C   0  0  0  0  0  0  0  0  0  0  0  0
  -17.4234   40.0656  -24.5526 F   0  0  0  0  0  0  0  0  0  0  0  0
  -17.5367   39.2637  -22.3098 C   0  0  0  0  0  0  0  0  0  0  0  0
  -18.8417   36.2320  -19.6655 N   0  0  0  0  0  0  0  0  0  0  0  0
  -19.4702   35.1276  -20.0425 C   0  0  0  0  0  0  0  0  0  0  0  0
  -19.6006   34.8582  -21.4039 C   0  0  0  0  0  0  0  0  0  0  0  0
  -20.2730   33.6854  -21.8227 N   0  0  0  0  0  0  0  0  0  0  0  0
  -20.8079   32.7754  -20.8693 C   0  0  0  0  0  0  0  0  0  0  0  0
  -20.4056   33.4247  -23.2049 C   0  0  0  0  0  0  0  0  0  0  0  0
  -21.2126   32.4991  -23.6168 O   0  0  0  0  0  0  0  0  0  0  0  0
  -19.6398   34.1876  -24.2126 C   0  0  0  0  0  0  0  0  0  0  0  0
  -18.4699   33.3196  -24.6315 C   0  0  0  0  0  0  0  0  0  0  0  0
  1  2  1  0
  2  3  1  0
  2  4  1  0
  4  5  1  0
  5  6  1  0
  6  7  1  0
  7  8  2  0
  8  9  1  0
  9 10  1  0
 10 11  1  0
 11 12  2  0
 12 13  1  0
 13 14  1  0
 13 15  2  0
 15 16  1  0
 15 17  1  0
 17 18  1  0
 17 19  2  0
  9 20  2  0
 20 21  1  0
 21 22  2  0
 22 23  1  0
 23 24  1  0
 23 25  1  0
 25 26  2  0
 25 27  1  0
 27 28  1  0
 27  6  1  0
 22  7  1  0
 19 11  1  0
M  END
$$$$
