
     RDKit          3D

 19 21  0  0  0  0  0  0  0  0999 V2000
  -22.2346   36.9100  -24.3474 O   0  0  0  0  0  0  0  0  0  0  0  0
  -21.4258   37.8104  -25.0599 C   0  0  0  0  0  0  0  0  0  0  0  0
  -22.2458   38.2880  -26.2212 C   0  0  0  0  0  0  0  0  0  0  0  0
  -21.5004   39.1123  -27.2095 C   0  0  0  0  0  0  0  0  0  0  0  0
  -20.0313   38.7096  -27.2600 C   0  0  0  0  0  0  0  0  0  0  0  0
  -19.9861   37.2377  -26.9278 C   0  0  0  0  0  0  0  0  0  0  0  0
  -20.1701   37.1032  -25.4424 C   0  0  0  0  0  0  0  0  0  0  0  0
  -19.1080   37.5824  -24.6546 N   0  0  0  0  0  0  0  0  0  0  0  0
  -19.1893   39.0135  -24.4663 C   0  0  0  0  0  0  0  0  0  0  0  0
  -17.8187   39.4945  -24.0663 C   0  0  0  0  0  0  0  0  0  0  0  0
  -17.4242   38.8424  -22.7566 C   0  0  0  0  0  0  0  0  0  0  0  0
  -17.2687   39.8324  -21.6717 C   0  0  0  0  0  0  0  0  0  0  0  0
  -17.8623   39.5929  -20.4602 C   0  0  0  0  0  0  0  0  0  0  0  0
  -17.7296   40.5041  -19.4343 C   0  0  0  0  0  0  0  0  0  0  0  0
  -17.0049   41.6682  -19.5954 C   0  0  0  0  0  0  0  0  0  0  0  0
  -16.4092   41.9143  -20.8024 C   0  0  0  0  0  0  0  0  0  0  0  0
  -16.5428   40.9917  -21.8431 C   0  0  0  0  0  0  0  0  0  0  0  0
  -18.4828   37.8380  -22.3289 C   0  0  0  0  0  0  0  0  0  0  0  0
  -18.7684   36.8940  -23.4775 C   0  0  0  0  0  0  0  0  0  0  0  0
  1  2  1  0
  2  3  1  0
  3  4  1  0
  4  5  1  0
  5  6  1  0
  6  7  1  0
  7  8  1  0
  8  9  1  0
  9 10  1  0
 10 11  1  0
 11 12  1  0
 12 13  2  0
 13 14  1  0
 14 15  2  0
 15 16  1  0
 16 17  2  0
 11 18  1  0
 18 19  1  0
  7  2  1  0
 19  8  1  0
 17 12  1  0
M  END
$$$$
