
     RDKit          3D

 17 18  0  0  0  0  0  0  0  0999 V2000
  -17.5997   33.6818  -21.8693 N   0  0  0  0  0  0  0  0  0  0  0  0
  -16.8009   35.1968  -21.7812 S   0  0  0  0  0  6  0  0  0  0  0  0
  -15.5457   35.2219  -22.6199 O   0  0  0  0  0  0  0  0  0  0  0  0
  -16.3565   35.3818  -20.3601 O   0  0  0  0  0  0  0  0  0  0  0  0
  -17.8679   36.5076  -22.2034 C   0  0  0  0  0  0  0  0  0  0  0  0
  -17.7355   37.7033  -21.5473 C   0  0  0  0  0  0  0  0  0  0  0  0
  -18.5774   38.7738  -21.8648 C   0  0  0  0  0  0  0  0  0  0  0  0
  -19.5485   38.6551  -22.8322 C   0  0  0  0  0  0  0  0  0  0  0  0
  -19.6656   37.4374  -23.4837 C   0  0  0  0  0  0  0  0  0  0  0  0
  -18.8458   36.3697  -23.1858 C   0  0  0  0  0  0  0  0  0  0  0  0
  -18.9820   34.8252  -24.0005 Cl  0  0  0  0  0  0  0  0  0  0  0  0
  -20.4035   39.7539  -23.1476 N   0  0  0  0  0  0  0  0  0  0  0  0
  -20.7777   40.6934  -22.1206 C   0  0  0  0  0  0  0  0  0  0  0  0
  -19.6290   41.3597  -21.5931 N   0  0  0  0  0  0  0  0  0  0  0  0
  -18.4121   40.2978  -21.0348 S   0  0  0  0  0  6  0  0  0  0  0  0
  -18.4750   40.1390  -19.5425 O   0  0  0  0  0  0  0  0  0  0  0  0
  -17.0774   40.9035  -21.3599 O   0  0  0  0  0  0  0  0  0  0  0  0
  1  2  1  0
  2  3  2  0
  2  4  2  0
  2  5  1  0
  5  6  2  0
  6  7  1  0
  7  8  2  0
  8  9  1  0
  9 10  2  0
 10 11  1  0
  8 12  1  0
 12 13  1  0
 13 14  1  0
 14 15  1  0
 15 16  2  0
 15 17  2  0
 10  5  1  0
 15  7  1  0
M  END
$$$$
