
     RDKit          3D

 24 27  0  0  0  0  0  0  0  0999 V2000
  -18.4601   33.6443  -22.4495 O   0  0  0  0  0  0  0  0  0  0  0  0
  -17.8299   34.6404  -22.0194 C   0  0  0  0  0  0  0  0  0  0  0  0
  -16.8275   34.4307  -21.0889 O   0  0  0  0  0  0  0  0  0  0  0  0
  -18.1690   35.9753  -22.5079 C   0  0  0  0  0  0  0  0  0  0  0  0
  -19.0044   36.1793  -23.5808 C   0  0  0  0  0  0  0  0  0  0  0  0
  -19.3172   37.4080  -24.0312 N   0  0  0  0  0  0  0  0  0  0  0  0
  -20.2063   37.5489  -25.1700 C   0  0  0  0  0  0  0  0  0  0  0  0
  -21.3607   38.4873  -25.0935 C   0  0  0  0  0  0  0  0  0  0  0  0
  -20.1846   38.8020  -25.9443 C   0  0  0  0  0  0  0  0  0  0  0  0
  -18.8201   38.5229  -23.4450 C   0  0  0  0  0  0  0  0  0  0  0  0
  -19.1612   39.7890  -23.9329 C   0  0  0  0  0  0  0  0  0  0  0  0
  -18.6501   40.9169  -23.3294 C   0  0  0  0  0  0  0  0  0  0  0  0
  -18.9558   42.2200  -23.7738 N   0  0  0  0  0  0  0  0  0  0  0  0
  -18.2016   43.3921  -23.3570 C   0  0  0  0  0  0  0  0  0  0  0  0
  -18.0296   44.2358  -24.6103 C   0  0  0  0  0  0  0  0  0  0  0  0
  -19.2987   44.7625  -24.9732 N   0  0  0  0  0  0  0  0  0  0  0  0
  -20.4018   43.8846  -24.8475 C   0  0  0  0  0  0  0  0  0  0  0  0
  -20.0585   42.4370  -24.6824 C   0  0  0  0  0  0  0  0  0  0  0  0
  -17.8112   40.7271  -22.2526 C   0  0  0  0  0  0  0  0  0  0  0  0
  -17.3004   41.8351  -21.6486 F   0  0  0  0  0  0  0  0  0  0  0  0
  -17.4700   39.4872  -21.7656 C   0  0  0  0  0  0  0  0  0  0  0  0
  -17.9805   38.3419  -22.3677 C   0  0  0  0  0  0  0  0  0  0  0  0
  -17.6514   37.0944  -21.8957 C   0  0  0  0  0  0  0  0  0  0  0  0
  -16.8802   36.9834  -20.9085 O   0  0  0  0  0  0  0  0  0  0  0  0
  1  2  2  0
  2  3  1  0
  2  4  1  0
  4  5  2  0
  5  6  1  0
  6  7  1  0
  7  8  1  0
  8  9  1  0
  6 10  1  0
 10 11  2  0
 11 12  1  0
 12 13  1  0
 13 14  1  0
 14 15  1  0
 15 16  1  0
 16 17  1  0
 17 18  1  0
 12 19  2  0
 19 20  1  0
 19 21  1  0
 21 22  2  0
 22 23  1  0
 23 24  2  0
 23  4  1  0
  9  7  1  0
 22 10  1  0
 18 13  1  0
M  END
$$$$
