
     RDKit          3D

 17 18  0  0  0  0  0  0  0  0999 V2000
  -30.2010   15.4799  -26.0790 C   0  0  0  0  0  0  0  0  0  0  0  0
  -29.6712   16.7926  -26.5324 C   0  0  0  0  0  0  0  0  0  0  0  0
  -28.3144   16.9837  -26.6632 C   0  0  0  0  0  0  0  0  0  0  0  0
  -27.8552   18.2131  -27.0864 C   0  0  0  0  0  0  0  0  0  0  0  0
  -28.7398   19.2288  -27.3709 C   0  0  0  0  0  0  0  0  0  0  0  0
  -28.3367   20.5189  -27.7843 N   0  0  0  0  0  0  0  0  0  0  0  0
  -28.6982   21.1875  -28.9621 C   0  0  0  0  0  0  0  0  0  0  0  0
  -28.1666   22.4225  -29.2658 C   0  0  0  0  0  0  0  0  0  0  0  0
  -28.4928   23.0931  -30.4400 C   0  0  0  0  0  0  0  0  0  0  0  0
  -28.0111   24.2197  -30.7231 O   0  0  0  0  0  0  0  0  0  0  0  0
  -29.3509   22.5105  -31.2942 N   0  0  0  0  0  0  0  0  0  0  0  0
  -29.8568   21.3088  -30.9823 C   0  0  0  0  0  0  0  0  0  0  0  0
  -30.6661   20.7729  -31.8025 O   0  0  0  0  0  0  0  0  0  0  0  0
  -29.5469   20.6378  -29.8341 N   0  0  0  0  0  0  0  0  0  0  0  0
  -30.1088   19.0091  -27.2305 C   0  0  0  0  0  0  0  0  0  0  0  0
  -30.5845   17.7886  -26.8100 C   0  0  0  0  0  0  0  0  0  0  0  0
  -32.3067   17.4981  -26.6291 Cl  0  0  0  0  0  0  0  0  0  0  0  0
  1  2  1  0
  2  3  2  0
  3  4  1  0
  4  5  2  0
  5  6  1  0
  6  7  1  0
  7  8  2  0
  8  9  1  0
  9 10  2  0
  9 11  1  0
 11 12  1  0
 12 13  2  0
 12 14  1  0
  5 15  1  0
 15 16  2  0
 16 17  1  0
 16  2  1  0
 14  7  1  0
M  END
$$$$
