
     RDKit          3D

 23 24  0  0  0  0  0  0  0  0999 V2000
  -15.9281   17.6893  -11.5985 C   0  0  0  0  0  0  0  0  0  0  0  0
  -17.2663   18.1372  -11.1796 C   0  0  0  0  0  0  0  0  0  0  0  0
  -18.0733   18.9300  -12.0334 N   0  0  0  0  0  0  0  0  0  0  0  0
  -18.4586   20.2679  -11.4818 C   0  0  0  0  0  0  0  0  0  0  0  0
  -19.6308   20.1868  -10.5788 C   0  0  0  0  0  0  0  0  0  0  0  0
  -18.6360   18.5906  -13.2515 C   0  0  0  0  0  0  0  0  0  0  0  0
  -19.1081   17.3021  -13.5188 C   0  0  0  0  0  0  0  0  0  0  0  0
  -19.5852   16.9433  -14.7395 C   0  0  0  0  0  0  0  0  0  0  0  0
  -19.6315   17.8262  -15.7791 C   0  0  0  0  0  0  0  0  0  0  0  0
  -20.1518   17.4244  -17.1106 C   0  0  0  0  0  0  0  0  0  0  0  0
  -21.0624   16.5225  -17.2188 N   0  0  0  0  0  0  0  0  0  0  0  0
  -21.0243   15.4883  -18.1746 N   0  0  0  0  0  0  0  0  0  0  0  0
  -22.1398   14.9686  -18.8216 C   0  0  0  0  0  0  0  0  0  0  0  0
  -23.2100   14.8496  -18.1399 O   0  0  0  0  0  0  0  0  0  0  0  0
  -22.1697   14.5544  -20.2127 C   0  0  0  0  0  0  0  0  0  0  0  0
  -21.0663   14.6163  -21.0254 C   0  0  0  0  0  0  0  0  0  0  0  0
  -21.1084   14.2155  -22.3661 C   0  0  0  0  0  0  0  0  0  0  0  0
  -22.2742   13.7394  -22.9218 C   0  0  0  0  0  0  0  0  0  0  0  0
  -22.2674   13.3539  -24.2554 O   0  0  0  0  0  0  0  0  0  0  0  0
  -23.3845   13.6747  -22.1126 C   0  0  0  0  0  0  0  0  0  0  0  0
  -23.3479   14.0678  -20.7928 C   0  0  0  0  0  0  0  0  0  0  0  0
  -19.1805   19.0900  -15.5565 C   0  0  0  0  0  0  0  0  0  0  0  0
  -18.6951   19.4563  -14.3204 C   0  0  0  0  0  0  0  0  0  0  0  0
  1  2  1  0
  2  3  1  0
  3  4  1  0
  4  5  1  0
  3  6  1  0
  6  7  2  0
  7  8  1  0
  8  9  2  0
  9 10  1  0
 10 11  2  0
 11 12  1  0
 12 13  1  0
 13 14  2  0
 13 15  1  0
 15 16  2  0
 16 17  1  0
 17 18  2  0
 18 19  1  0
 18 20  1  0
 20 21  2  0
  9 22  1  0
 22 23  2  0
 23  6  1  0
 21 15  1  0
M  END
$$$$
