
     RDKit          3D

 25 28  0  0  0  0  0  0  0  0999 V2000
  -20.5513   44.3558  -25.9874 C   0  0  0  0  0  0  0  0  0  0  0  0
  -20.3745   43.4671  -24.7987 C   0  0  0  0  0  0  0  0  0  0  0  0
  -18.9789   42.8236  -24.8595 C   0  0  0  0  0  0  0  0  0  0  0  0
  -18.6501   42.2290  -23.5788 C   0  0  0  0  0  0  0  0  0  0  0  0
  -18.5493   40.9185  -23.1294 C   0  0  0  0  0  0  0  0  0  0  0  0
  -18.2179   40.6947  -21.8578 C   0  0  0  0  0  0  0  0  0  0  0  0
  -18.0735   39.4241  -21.2445 C   0  0  0  0  0  0  0  0  0  0  0  0
  -18.2753   38.2111  -21.9499 N   0  0  0  0  0  0  0  0  0  0  0  0
  -19.3903   37.9779  -22.8479 C   0  0  0  0  0  0  0  0  0  0  0  0
  -20.0868   36.6914  -22.4598 C   0  0  0  0  0  0  0  0  0  0  0  0
  -19.1051   35.6376  -22.2157 N   0  0  0  0  0  0  0  0  0  0  0  0
  -19.6081   34.3470  -21.9116 C   0  0  0  0  0  0  0  0  0  0  0  0
  -18.9023   33.3317  -21.6513 N   0  0  0  0  0  0  0  0  0  0  0  0
  -19.5023   32.1019  -21.3624 C   0  0  0  0  0  0  0  0  0  0  0  0
  -20.8905   31.9984  -21.9576 C   0  0  0  0  0  0  0  0  0  0  0  0
  -21.8226   31.1675  -21.1419 C   0  0  0  0  0  0  0  0  0  0  0  0
  -20.8696   31.6561  -23.4139 C   0  0  0  0  0  0  0  0  0  0  0  0
  -21.3096   33.7950  -21.8254 S   0  0  0  0  0  0  0  0  0  0  0  0
  -17.6880   35.8489  -22.2696 C   0  0  0  0  0  0  0  0  0  0  0  0
  -17.2634   37.1693  -21.7161 C   0  0  0  0  0  0  0  0  0  0  0  0
  -17.7383   39.3564  -19.9664 N   0  0  0  0  0  0  0  0  0  0  0  0
  -17.5172   40.3994  -19.1782 C   0  0  0  0  0  0  0  0  0  0  0  0
  -17.6389   41.6245  -19.7028 N   0  0  0  0  0  0  0  0  0  0  0  0
  -17.9833   41.7327  -21.0179 C   0  0  0  0  0  0  0  0  0  0  0  0
  -18.2336   43.1440  -22.0412 S   0  0  0  0  0  0  0  0  0  0  0  0
  1  2  1  0
  2  3  1  0
  3  4  1  0
  4  5  2  0
  5  6  1  0
  6  7  2  0
  7  8  1  0
  8  9  1  0
  9 10  1  0
 10 11  1  0
 11 12  1  0
 12 13  2  0
 13 14  1  0
 14 15  1  0
 15 16  1  0
 15 17  1  0
 15 18  1  0
 11 19  1  0
 19 20  1  0
  7 21  1  0
 21 22  2  0
 22 23  1  0
 23 24  2  0
 24 25  1  0
 25  4  1  0
 24  6  1  0
 20  8  1  0
 18 12  1  0
M  END
$$$$
