
     RDKit          3D

 17 19  0  0  0  0  0  0  0  0999 V2000
  -12.8049   12.7687  -30.3737 C   0  0  0  0  0  0  0  0  0  0  0  0
  -13.2666   14.1978  -30.3842 C   0  0  0  0  0  0  0  0  0  0  0  0
  -14.7092   14.2977  -30.7612 C   0  0  0  0  0  0  0  0  0  0  0  0
  -15.4057   13.2178  -30.8280 N   0  0  0  0  0  0  0  0  0  0  0  0
  -16.7555   13.1747  -31.1647 N   0  0  0  0  0  0  0  0  0  0  0  0
  -17.4037   14.4218  -31.4536 C   0  0  0  0  0  0  0  0  0  0  0  0
  -18.7431   14.4149  -31.7926 C   0  0  0  0  0  0  0  0  0  0  0  0
  -19.3533   15.6328  -32.0707 C   0  0  0  0  0  0  0  0  0  0  0  0
  -18.6800   16.8357  -32.0220 C   0  0  0  0  0  0  0  0  0  0  0  0
  -17.3346   16.8106  -31.6782 C   0  0  0  0  0  0  0  0  0  0  0  0
  -16.6439   18.0077  -31.6283 C   0  0  0  0  0  0  0  0  0  0  0  0
  -17.3018   19.1944  -31.9159 O   0  0  0  0  0  0  0  0  0  0  0  0
  -16.7417   20.2013  -32.7257 C   0  0  0  0  0  0  0  0  0  0  0  0
  -15.3142   17.9287  -31.2865 C   0  0  0  0  0  0  0  0  0  0  0  0
  -14.6518   16.7495  -30.9981 C   0  0  0  0  0  0  0  0  0  0  0  0
  -15.3634   15.5630  -31.0536 C   0  0  0  0  0  0  0  0  0  0  0  0
  -16.7088   15.6143  -31.3981 C   0  0  0  0  0  0  0  0  0  0  0  0
  1  2  1  0
  2  3  1  0
  3  4  2  0
  4  5  1  0
  5  6  1  0
  6  7  1  0
  7  8  2  0
  8  9  1  0
  9 10  2  0
 10 11  1  0
 11 12  1  0
 12 13  1  0
 11 14  2  0
 14 15  1  0
 15 16  2  0
 16 17  1  0
 16  3  1  0
 17  6  2  0
 17 10  1  0
M  END
$$$$
