
     RDKit          3D

 30 33  0  0  0  0  0  0  0  0999 V2000
  -22.3305   38.8907  -26.7976 C   0  0  0  0  0  0  0  0  0  0  0  0
  -21.7084   39.5544  -28.0311 C   0  0  0  0  0  0  0  0  0  0  0  0
  -22.2667   40.9647  -28.1529 C   0  0  0  0  0  0  0  0  0  0  0  0
  -22.1128   38.8310  -29.1257 O   0  0  0  0  0  0  0  0  0  0  0  0
  -20.2032   39.6086  -27.8946 C   0  0  0  0  0  0  0  0  0  0  0  0
  -19.8529   40.6342  -26.9361 N   0  0  0  0  0  0  0  0  0  0  0  0
  -19.5123   40.3266  -25.5871 C   0  0  0  0  0  0  0  0  0  0  0  0
  -19.1876   41.3433  -24.7630 N   0  0  0  0  0  0  0  0  0  0  0  0
  -18.8611   41.1810  -23.4970 C   0  0  0  0  0  0  0  0  0  0  0  0
  -18.8472   39.8681  -22.9601 C   0  0  0  0  0  0  0  0  0  0  0  0
  -18.4777   39.7839  -21.5376 C   0  0  0  0  0  0  0  0  0  0  0  0
  -18.5103   40.8118  -20.6568 C   0  0  0  0  0  0  0  0  0  0  0  0
  -18.0362   40.5615  -19.3587 C   0  0  0  0  0  0  0  0  0  0  0  0
  -17.5741   39.3657  -19.0144 N   0  0  0  0  0  0  0  0  0  0  0  0
  -17.5337   38.3153  -19.8993 C   0  0  0  0  0  0  0  0  0  0  0  0
  -17.0324   37.0676  -19.4642 N   0  0  0  0  0  0  0  0  0  0  0  0
  -16.8214   35.9128  -20.2373 C   0  0  0  0  0  0  0  0  0  0  0  0
  -16.5747   34.7274  -19.5582 C   0  0  0  0  0  0  0  0  0  0  0  0
  -16.3609   33.5761  -20.2548 C   0  0  0  0  0  0  0  0  0  0  0  0
  -16.3855   33.5738  -21.6019 N   0  0  0  0  0  0  0  0  0  0  0  0
  -16.6229   34.7135  -22.2732 C   0  0  0  0  0  0  0  0  0  0  0  0
  -16.6508   34.6814  -24.0205 Cl  0  0  0  0  0  0  0  0  0  0  0  0
  -16.8480   35.9169  -21.6062 C   0  0  0  0  0  0  0  0  0  0  0  0
  -17.9939   38.6054  -21.1101 N   0  0  0  0  0  0  0  0  0  0  0  0
  -19.1658   38.8562  -23.7834 C   0  0  0  0  0  0  0  0  0  0  0  0
  -19.0401   37.4294  -23.4374 C   0  0  0  0  0  0  0  0  0  0  0  0
  -20.3569   36.7427  -23.4011 C   0  0  0  0  0  0  0  0  0  0  0  0
  -21.2384   36.7345  -24.5967 C   0  0  0  0  0  0  0  0  0  0  0  0
  -21.6378   37.4864  -23.3640 C   0  0  0  0  0  0  0  0  0  0  0  0
  -19.4936   39.1131  -25.0798 N   0  0  0  0  0  0  0  0  0  0  0  0
  1  2  1  0
  2  3  1  0
  2  4  1  0
  2  5  1  0
  5  6  1  0
  6  7  1  0
  7  8  2  0
  8  9  1  0
  9 10  2  0
 10 11  1  0
 11 12  2  0
 12 13  1  0
 13 14  2  0
 14 15  1  0
 15 16  1  0
 16 17  1  0
 17 18  2  0
 18 19  1  0
 19 20  2  0
 20 21  1  0
 21 22  1  0
 21 23  2  0
 15 24  2  0
 10 25  1  0
 25 26  1  0
 26 27  1  0
 27 28  1  0
 28 29  1  0
 25 30  2  0
 30  7  1  0
 24 11  1  0
 29 27  1  0
 23 17  1  0
M  END
$$$$
