
     RDKit          3D

 24 26  0  0  0  0  0  0  0  0999 V2000
  -19.2960   18.6373  -35.9059 O   0  0  0  0  0  0  0  0  0  0  0  0
  -19.5700   17.5405  -35.1344 C   0  0  0  0  0  0  0  0  0  0  0  0
  -19.6249   17.7950  -33.6532 C   0  0  0  0  0  0  0  0  0  0  0  0
  -18.3749   17.8343  -32.9827 N   0  0  0  0  0  0  0  0  0  0  0  0
  -17.3190   17.1022  -33.5954 C   0  0  0  0  0  0  0  0  0  0  0  0
  -16.4254   16.4193  -32.5700 C   0  0  0  0  0  0  0  0  0  0  0  0
  -17.1825   15.3374  -31.8757 C   0  0  0  0  0  0  0  0  0  0  0  0
  -16.6332   14.9834  -30.5167 C   0  0  0  0  0  0  0  0  0  0  0  0
  -15.2635   14.4363  -30.5420 C   0  0  0  0  0  0  0  0  0  0  0  0
  -14.1779   15.1026  -30.0175 C   0  0  0  0  0  0  0  0  0  0  0  0
  -12.9040   14.5868  -30.0433 C   0  0  0  0  0  0  0  0  0  0  0  0
  -12.6512   13.3593  -30.6046 C   0  0  0  0  0  0  0  0  0  0  0  0
  -11.3871   12.8368  -30.6348 F   0  0  0  0  0  0  0  0  0  0  0  0
  -13.7203   12.6719  -31.1366 C   0  0  0  0  0  0  0  0  0  0  0  0
  -15.0024   13.2079  -31.1026 C   0  0  0  0  0  0  0  0  0  0  0  0
  -18.5964   15.8278  -31.6672 C   0  0  0  0  0  0  0  0  0  0  0  0
  -18.5690   17.3345  -31.6371 C   0  0  0  0  0  0  0  0  0  0  0  0
  -20.7276   16.7298  -35.5829 C   0  0  0  0  0  0  0  0  0  0  0  0
  -22.0323   17.0467  -35.1931 C   0  0  0  0  0  0  0  0  0  0  0  0
  -23.1250   16.3223  -35.5840 C   0  0  0  0  0  0  0  0  0  0  0  0
  -22.9222   15.2329  -36.3987 C   0  0  0  0  0  0  0  0  0  0  0  0
  -24.2947   14.3070  -36.9030 Cl  0  0  0  0  0  0  0  0  0  0  0  0
  -21.6565   14.8812  -36.8091 C   0  0  0  0  0  0  0  0  0  0  0  0
  -20.5997   15.6303  -36.3957 C   0  0  0  0  0  0  0  0  0  0  0  0
  1  2  1  0
  2  3  1  0
  3  4  1  0
  4  5  1  0
  5  6  1  0
  6  7  1  0
  7  8  1  0
  8  9  1  0
  9 10  2  0
 10 11  1  0
 11 12  2  0
 12 13  1  0
 12 14  1  0
 14 15  2  0
  7 16  1  0
 16 17  1  0
  2 18  1  0
 18 19  2  0
 19 20  1  0
 20 21  2  0
 21 22  1  0
 21 23  1  0
 23 24  2  0
 17  4  1  0
 24 18  1  0
 15  9  1  0
M  END
$$$$
