
     RDKit          3D

 25 26  0  0  0  0  0  0  0  0999 V2000
  -21.4274   45.3401  -27.0858 C   0  0  0  0  0  0  0  0  0  0  0  0
  -21.3323   44.3382  -25.9501 C   0  0  0  0  0  0  0  0  0  0  0  0
  -19.9293   44.2967  -25.5056 C   0  0  0  0  0  0  0  0  0  0  0  0
  -19.3078   45.3950  -25.5102 O   0  0  0  0  0  0  0  0  0  0  0  0
  -19.2930   43.1282  -25.0965 N   0  0  0  0  0  0  0  0  0  0  0  0
  -20.1134   41.9583  -24.7423 C   0  0  0  0  0  0  0  0  0  0  0  0
  -19.3166   40.9324  -23.9704 C   0  0  0  0  0  0  0  0  0  0  0  0
  -18.4420   41.5720  -22.9164 C   0  0  0  0  0  0  0  0  0  0  0  0
  -17.6930   40.5378  -22.2517 N   0  0  0  0  0  0  0  0  0  0  0  0
  -18.3326   39.2717  -22.0462 C   0  0  0  0  0  0  0  0  0  0  0  0
  -19.4892   39.2777  -21.5832 O   0  0  0  0  0  0  0  0  0  0  0  0
  -17.7172   38.0492  -22.3404 N   0  0  0  0  0  0  0  0  0  0  0  0
  -18.1779   36.7641  -22.0625 C   0  0  0  0  0  0  0  0  0  0  0  0
  -19.4654   36.3514  -22.0903 C   0  0  0  0  0  0  0  0  0  0  0  0
  -19.7825   35.0234  -21.7904 C   0  0  0  0  0  0  0  0  0  0  0  0
  -18.8448   34.0788  -21.4580 C   0  0  0  0  0  0  0  0  0  0  0  0
  -19.2042   32.7709  -21.1675 O   0  0  0  0  0  0  0  0  0  0  0  0
  -19.7158   31.9563  -22.2086 C   0  0  0  0  0  0  0  0  0  0  0  0
  -21.0159   32.3460  -22.4798 F   0  0  0  0  0  0  0  0  0  0  0  0
  -19.7320   30.6319  -21.8430 F   0  0  0  0  0  0  0  0  0  0  0  0
  -18.9246   32.0693  -23.3421 F   0  0  0  0  0  0  0  0  0  0  0  0
  -17.5231   34.4953  -21.4275 C   0  0  0  0  0  0  0  0  0  0  0  0
  -17.2158   35.7949  -21.7214 C   0  0  0  0  0  0  0  0  0  0  0  0
  -17.5697   42.6460  -23.5030 C   0  0  0  0  0  0  0  0  0  0  0  0
  -17.8803   42.9233  -24.9766 C   0  0  0  0  0  0  0  0  0  0  0  0
  1  2  1  0
  2  3  1  0
  3  4  2  0
  3  5  1  0
  5  6  1  0
  6  7  1  0
  7  8  1  0
  8  9  1  0
  9 10  1  0
 10 11  2  0
 10 12  1  0
 12 13  1  0
 13 14  2  0
 14 15  1  0
 15 16  2  0
 16 17  1  0
 17 18  1  0
 18 19  1  0
 18 20  1  0
 18 21  1  0
 16 22  1  0
 22 23  2  0
  8 24  1  0
 24 25  1  0
 25  5  1  0
 23 13  1  0
M  END
$$$$
