
     RDKit          3D

 21 22  0  0  0  0  0  0  0  0999 V2000
  -18.3277   37.4301  -22.1134 Cl  0  0  0  0  0  0  0  0  0  0  0  0
  -18.8551   31.9001  -21.2480 Cl  0  0  0  0  0  0  0  0  0  0  0  0
  -19.6358   33.3906  -21.7215 C   0  0  0  0  0  0  0  0  0  0  0  0
  -20.9062   33.6562  -21.2652 C   0  0  0  0  0  0  0  0  0  0  0  0
  -21.5041   34.8384  -21.6509 C   0  0  0  0  0  0  0  0  0  0  0  0
  -20.8680   35.7213  -22.4546 C   0  0  0  0  0  0  0  0  0  0  0  0
  -19.5766   35.4394  -22.9098 C   0  0  0  0  0  0  0  0  0  0  0  0
  -18.9505   36.3833  -23.8269 C   0  0  0  0  0  0  0  0  0  0  0  0
  -19.5896   36.7512  -24.9772 N   0  0  0  0  0  0  0  0  0  0  0  0
  -18.8506   37.6467  -25.5897 N   0  0  0  0  0  0  0  0  0  0  0  0
  -17.7840   37.8391  -24.8528 N   0  0  0  0  0  0  0  0  0  0  0  0
  -17.8180   37.0653  -23.7426 N   0  0  0  0  0  0  0  0  0  0  0  0
  -16.7996   37.1367  -22.6920 C   0  0  0  0  0  0  0  0  0  0  0  0
  -17.1779   38.2784  -21.8153 C   0  0  0  0  0  0  0  0  0  0  0  0
  -17.9928   38.1223  -20.7196 C   0  0  0  0  0  0  0  0  0  0  0  0
  -18.3330   39.2058  -19.9148 C   0  0  0  0  0  0  0  0  0  0  0  0
  -17.8460   40.4497  -20.2214 C   0  0  0  0  0  0  0  0  0  0  0  0
  -17.0455   40.6022  -21.2981 N   0  0  0  0  0  0  0  0  0  0  0  0
  -16.7110   39.5376  -22.0892 C   0  0  0  0  0  0  0  0  0  0  0  0
  -18.9501   34.2832  -22.5562 C   0  0  0  0  0  0  0  0  0  0  0  0
  -17.3677   33.7864  -23.1612 Cl  0  0  0  0  0  0  0  0  0  0  0  0
  2  3  1  0
  3  4  2  0
  4  5  1  0
  5  6  2  0
  6  7  1  0
  7  8  1  0
  8  9  2  0
  9 10  1  0
 10 11  2  0
 11 12  1  0
 12 13  1  0
 13 14  1  0
 14 15  2  0
 15 16  1  0
 16 17  2  0
 17 18  1  0
 18 19  2  0
  7 20  2  0
 20 21  1  0
 20  3  1  0
 12  8  1  0
 19 14  1  0
M  END
$$$$
