
     RDKit          3D

 10  9  0  0  0  0  0  0  0  0999 V2000
  -18.9460   34.2104  -21.2063 O   0  0  0  0  0  0  0  0  0  0  0  0
  -18.4373   34.2919  -22.3418 C   0  0  0  0  0  0  0  0  0  0  0  0
  -18.2911   33.1273  -23.0603 O   0  0  0  0  0  0  0  0  0  0  0  0
  -18.0248   35.5854  -22.8572 C   0  0  0  0  0  0  0  0  0  0  0  0
  -17.7877   36.5911  -21.8660 N   0  0  0  0  0  0  0  0  0  0  0  0
  -18.3873   37.8716  -21.8537 C   0  0  0  0  0  0  0  0  0  0  0  0
  -19.1818   38.1541  -22.7818 O   0  0  0  0  0  0  0  0  0  0  0  0
  -18.0818   38.8139  -20.7948 C   0  0  0  0  0  0  0  0  0  0  0  0
  -17.3185   38.4365  -19.8724 O   0  0  0  0  0  0  0  0  0  0  0  0
  -18.5750   40.0973  -20.7352 O   0  0  0  0  0  0  0  0  0  0  0  0
  1  2  2  0
  2  3  1  0
  2  4  1  0
  4  5  1  0
  5  6  1  0
  6  7  2  0
  6  8  1  0
  8  9  2  0
  8 10  1  0
M  END
$$$$
