
     RDKit          3D

 37 41  0  0  0  0  0  0  0  0999 V2000
  -24.5537   12.9549  -27.4665 C   0  0  0  0  0  0  0  0  0  0  0  0
  -25.1390   14.2397  -26.8761 C   0  0  0  0  0  0  0  0  0  0  0  0
  -25.0818   14.2003  -25.1164 S   0  0  0  0  0  6  0  0  0  0  0  0
  -25.6107   12.8710  -24.6279 O   0  0  0  0  0  0  0  0  0  0  0  0
  -23.6090   14.2346  -24.7275 O   0  0  0  0  0  0  0  0  0  0  0  0
  -25.8667   15.5078  -24.3934 N   0  0  0  0  0  0  0  0  0  0  0  0
  -25.7741   16.8826  -24.7023 C   0  0  0  0  0  0  0  0  0  0  0  0
  -24.9324   17.7522  -24.0735 C   0  0  0  0  0  0  0  0  0  0  0  0
  -24.9101   19.1122  -24.4158 C   0  0  0  0  0  0  0  0  0  0  0  0
  -25.7553   19.5652  -25.4034 C   0  0  0  0  0  0  0  0  0  0  0  0
  -26.6254   18.7004  -26.0641 C   0  0  0  0  0  0  0  0  0  0  0  0
  -26.6204   17.3760  -25.7009 C   0  0  0  0  0  0  0  0  0  0  0  0
  -27.3749   19.5002  -27.0196 C   0  0  0  0  0  0  0  0  0  0  0  0
  -28.2306   19.0284  -27.8740 C   0  0  0  0  0  0  0  0  0  0  0  0
  -29.1525   19.9607  -28.4911 N   0  0  0  0  0  0  0  0  0  0  0  0
  -28.7284   20.9743  -29.3579 C   0  0  0  0  0  0  0  0  0  0  0  0
  -28.4795   22.2512  -28.9803 C   0  0  0  0  0  0  0  0  0  0  0  0
  -28.0637   23.1990  -29.8936 C   0  0  0  0  0  0  0  0  0  0  0  0
  -27.8825   22.8892  -31.2319 C   0  0  0  0  0  0  0  0  0  0  0  0
  -27.4384   23.8540  -32.2605 C   0  0  0  0  0  0  0  0  0  0  0  0
  -26.0169   23.8230  -32.4751 N   0  0  0  0  0  0  0  0  0  0  0  0
  -25.2824   24.8092  -31.7384 C   0  0  0  0  0  0  0  0  0  0  0  0
  -25.3775   26.1946  -32.3036 C   0  0  0  0  0  0  0  0  0  0  0  0
  -25.0286   26.1877  -33.7577 C   0  0  0  0  0  0  0  0  0  0  0  0
  -25.7334   25.1162  -34.5401 C   0  0  0  0  0  0  0  0  0  0  0  0
  -25.6631   23.7642  -33.8598 C   0  0  0  0  0  0  0  0  0  0  0  0
  -28.1360   21.5898  -31.6148 C   0  0  0  0  0  0  0  0  0  0  0  0
  -28.5492   20.6571  -30.6957 C   0  0  0  0  0  0  0  0  0  0  0  0
  -28.3073   17.6821  -28.3921 C   0  0  0  0  0  0  0  0  0  0  0  0
  -29.2997   16.8151  -28.0410 C   0  0  0  0  0  0  0  0  0  0  0  0
  -29.3920   15.5739  -28.6210 C   0  0  0  0  0  0  0  0  0  0  0  0
  -28.4884   15.1532  -29.5796 C   0  0  0  0  0  0  0  0  0  0  0  0
  -27.4805   16.0250  -29.9408 C   0  0  0  0  0  0  0  0  0  0  0  0
  -27.3936   17.2859  -29.3460 C   0  0  0  0  0  0  0  0  0  0  0  0
  -26.9361   20.8906  -26.9176 C   0  0  0  0  0  0  0  0  0  0  0  0
  -27.3510   21.8909  -27.5796 O   0  0  0  0  0  0  0  0  0  0  0  0
  -25.9361   20.8932  -25.9119 N   0  0  0  0  0  0  0  0  0  0  0  0
  1  2  1  0
  2  3  1  0
  3  4  2  0
  3  5  2  0
  3  6  1  0
  6  7  1  0
  7  8  2  0
  8  9  1  0
  9 10  2  0
 10 11  1  0
 11 12  2  0
 11 13  1  0
 13 14  2  0
 14 15  1  0
 15 16  1  0
 16 17  2  0
 17 18  1  0
 18 19  2  0
 19 20  1  0
 20 21  1  0
 21 22  1  0
 22 23  1  0
 23 24  1  0
 24 25  1  0
 25 26  1  0
 19 27  1  0
 27 28  2  0
 14 29  1  0
 29 30  2  0
 30 31  1  0
 31 32  2  0
 32 33  1  0
 33 34  2  0
 13 35  1  0
 35 36  2  0
 35 37  1  0
 12  7  1  0
 28 16  1  0
 34 29  1  0
 37 10  1  0
 26 21  1  0
M  END
$$$$
