
     RDKit          3D

 49 53  0  0  0  0  0  0  0  0999 V2000
  -19.9020   24.0451  -33.8836 C   0  0  0  0  0  0  0  0  0  0  0  0
  -20.8116   23.6857  -35.0373 C   0  0  0  0  0  0  0  0  0  0  0  0
  -21.2223   22.3529  -35.0262 O   0  0  0  0  0  0  0  0  0  0  0  0
  -22.0530   21.7463  -35.9497 C   0  0  0  0  0  0  0  0  0  0  0  0
  -23.0507   22.5047  -36.5298 C   0  0  0  0  0  0  0  0  0  0  0  0
  -23.9230   21.9524  -37.4690 C   0  0  0  0  0  0  0  0  0  0  0  0
  -24.9959   22.7706  -38.0981 C   0  0  0  0  0  0  0  0  0  0  0  0
  -25.8711   23.4468  -37.0694 C   0  0  0  0  0  0  0  0  0  0  0  0
  -24.3881   23.8404  -38.9705 C   0  0  0  0  0  0  0  0  0  0  0  0
  -25.8182   21.8598  -38.9880 C   0  0  0  0  0  0  0  0  0  0  0  0
  -23.7371   20.6233  -37.7831 C   0  0  0  0  0  0  0  0  0  0  0  0
  -22.7315   19.8787  -37.1913 C   0  0  0  0  0  0  0  0  0  0  0  0
  -21.8839   20.4257  -36.2750 C   0  0  0  0  0  0  0  0  0  0  0  0
  -20.7681   19.6606  -35.6538 C   0  0  0  0  0  0  0  0  0  0  0  0
  -19.5236   19.8846  -35.8947 N   0  0  0  0  0  0  0  0  0  0  0  0
  -18.6423   19.0087  -35.1790 C   0  0  1  0  0  0  0  0  0  0  0  0
  -17.5464   18.5649  -36.1208 C   0  0  0  0  0  0  0  0  0  0  0  0
  -18.1312   19.6618  -33.9799 C   0  0  0  0  0  0  0  0  0  0  0  0
  -16.8391   19.3986  -33.5768 C   0  0  0  0  0  0  0  0  0  0  0  0
  -16.3548   20.0530  -32.4645 C   0  0  0  0  0  0  0  0  0  0  0  0
  -17.1465   20.9529  -31.7685 C   0  0  0  0  0  0  0  0  0  0  0  0
  -16.5451   21.7970  -30.3468 Cl  0  0  0  0  0  0  0  0  0  0  0  0
  -18.4451   21.1936  -32.2043 C   0  0  0  0  0  0  0  0  0  0  0  0
  -18.9258   20.5398  -33.3138 C   0  0  0  0  0  0  0  0  0  0  0  0
  -19.6087   17.8519  -34.9144 C   0  0  1  0  0  0  0  0  0  0  0  0
  -19.7903   17.0039  -36.1566 C   0  0  0  0  0  0  0  0  0  0  0  0
  -19.1679   17.0276  -33.8127 C   0  0  0  0  0  0  0  0  0  0  0  0
  -18.8162   15.7110  -34.1487 C   0  0  0  0  0  0  0  0  0  0  0  0
  -18.3631   14.7953  -33.2526 C   0  0  0  0  0  0  0  0  0  0  0  0
  -18.2302   15.1463  -31.9348 C   0  0  0  0  0  0  0  0  0  0  0  0
  -17.6481   13.9798  -30.7688 Cl  0  0  0  0  0  0  0  0  0  0  0  0
  -18.5718   16.4432  -31.5779 C   0  0  0  0  0  0  0  0  0  0  0  0
  -19.0268   17.3514  -32.4974 C   0  0  0  0  0  0  0  0  0  0  0  0
  -20.8598   18.5951  -34.7359 N   0  0  0  0  0  0  0  0  0  0  0  0
  -21.9124   18.1856  -33.9064 C   0  0  0  0  0  0  0  0  0  0  0  0
  -23.0775   18.7602  -34.1160 O   0  0  0  0  0  0  0  0  0  0  0  0
  -21.9451   17.2433  -32.8720 N   0  0  0  0  0  0  0  0  0  0  0  0
  -21.8597   15.8118  -32.9391 C   0  0  0  0  0  0  0  0  0  0  0  0
  -22.7331   15.3048  -31.7465 C   0  0  0  0  0  0  0  0  0  0  0  0
  -23.8215   16.1726  -31.5373 N   0  0  0  0  0  0  0  0  0  0  0  0
  -25.1199   15.6757  -31.4271 C   0  0  0  0  0  0  0  0  0  0  0  0
  -25.9573   16.0763  -30.2690 C   0  0  0  0  0  0  0  0  0  0  0  0
  -27.3413   15.5273  -30.2252 C   0  0  0  0  0  0  0  0  0  0  0  0
  -27.5564   14.4417  -28.8032 S   0  0  0  0  0  6  0  0  0  0  0  0
  -26.6525   12.9336  -29.0468 C   0  0  0  0  0  0  0  0  0  0  0  0
  -27.0512   15.1208  -27.5620 O   0  0  0  0  0  0  0  0  0  0  0  0
  -29.0055   14.1073  -28.6553 O   0  0  0  0  0  0  0  0  0  0  0  0
  -23.5096   17.4524  -31.0095 C   0  0  0  0  0  0  0  0  0  0  0  0
  -22.0747   17.7579  -31.4867 C   0  0  0  0  0  0  0  0  0  0  0  0
  1  2  1  0
  2  3  1  0
  3  4  1  0
  4  5  2  0
  5  6  1  0
  6  7  1  0
  7  8  1  0
  7  9  1  0
  7 10  1  0
  6 11  2  0
 11 12  1  0
 12 13  2  0
 13 14  1  0
 14 15  2  0
 15 16  1  0
 16 17  1  6
 16 18  1  0
 18 19  2  0
 19 20  1  0
 20 21  2  0
 21 22  1  0
 21 23  1  0
 23 24  2  0
 16 25  1  0
 25 26  1  6
 25 27  1  0
 27 28  2  0
 28 29  1  0
 29 30  2  0
 30 31  1  0
 30 32  1  0
 32 33  2  0
 25 34  1  0
 34 35  1  0
 35 36  2  0
 35 37  1  0
 37 38  1  0
 38 39  1  0
 39 40  1  0
 40 41  1  0
 41 42  1  0
 42 43  1  0
 43 44  1  0
 44 45  1  0
 44 46  2  0
 44 47  2  0
 40 48  1  0
 48 49  1  0
 13  4  1  0
 34 14  1  0
 49 37  1  0
 24 18  1  0
 33 27  1  0
M  END
$$$$
