
     RDKit          3D

 21 24  0  0  0  0  0  0  0  0999 V2000
  -23.1325   37.8175  -30.0601 C   0  0  0  0  0  0  0  0  0  0  0  0
  -22.3722   38.3598  -28.8859 C   0  0  0  0  0  0  0  0  0  0  0  0
  -22.3421   37.6209  -27.7154 C   0  0  0  0  0  0  0  0  0  0  0  0
  -21.6356   38.1224  -26.6209 C   0  0  0  0  0  0  0  0  0  0  0  0
  -20.9744   39.3279  -26.6846 C   0  0  0  0  0  0  0  0  0  0  0  0
  -20.2445   39.8354  -25.5382 C   0  0  0  0  0  0  0  0  0  0  0  0
  -19.6941   39.0466  -24.5542 C   0  0  0  0  0  0  0  0  0  0  0  0
  -19.0047   39.5901  -23.4779 C   0  0  0  0  0  0  0  0  0  0  0  0
  -18.8622   40.9606  -23.3839 C   0  0  0  0  0  0  0  0  0  0  0  0
  -19.4096   41.7021  -24.3582 N   0  0  0  0  0  0  0  0  0  0  0  0
  -20.0642   41.1804  -25.3796 N   0  0  0  0  0  0  0  0  0  0  0  0
  -18.1122   41.3177  -22.1891 C   0  0  0  0  0  0  0  0  0  0  0  0
  -17.6958   42.5195  -21.6282 C   0  0  0  0  0  0  0  0  0  0  0  0
  -16.9762   42.5815  -20.4533 C   0  0  0  0  0  0  0  0  0  0  0  0
  -16.6418   41.4236  -19.7860 C   0  0  0  0  0  0  0  0  0  0  0  0
  -17.0462   40.2116  -20.3262 C   0  0  0  0  0  0  0  0  0  0  0  0
  -17.7660   40.1530  -21.5018 C   0  0  0  0  0  0  0  0  0  0  0  0
  -18.3273   39.0515  -22.3109 C   0  0  0  0  0  0  0  0  0  0  0  0
  -18.2386   37.8419  -22.0418 O   0  0  0  0  0  0  0  0  0  0  0  0
  -21.0213   40.0379  -27.8563 C   0  0  0  0  0  0  0  0  0  0  0  0
  -21.7240   39.5561  -28.9701 C   0  0  0  0  0  0  0  0  0  0  0  0
  1  2  1  0
  2  3  2  0
  3  4  1  0
  4  5  2  0
  5  6  1  0
  6  7  2  0
  7  8  1  0
  8  9  2  0
  9 10  1  0
 10 11  2  0
  9 12  1  0
 12 13  2  0
 13 14  1  0
 14 15  2  0
 15 16  1  0
 16 17  2  0
 17 18  1  0
 18 19  2  0
  5 20  1  0
 20 21  2  0
 21  2  1  0
 11  6  1  0
 17 12  1  0
 18  8  1  0
M  END
$$$$
