
     RDKit          3D

 20 22  0  0  0  0  0  0  0  0999 V2000
  -17.2960   38.5682  -21.3949 O   0  0  0  0  0  0  0  0  0  0  0  0
  -18.0773   37.9305  -22.1432 C   0  0  0  0  0  0  0  0  0  0  0  0
  -18.7956   38.6211  -23.0992 C   0  0  0  0  0  0  0  0  0  0  0  0
  -18.7143   40.0555  -23.3085 C   0  0  0  0  0  0  0  0  0  0  0  0
  -17.7529   40.5992  -24.1340 C   0  0  0  0  0  0  0  0  0  0  0  0
  -17.6894   41.9590  -24.3215 C   0  0  0  0  0  0  0  0  0  0  0  0
  -18.5761   42.8002  -23.6949 C   0  0  0  0  0  0  0  0  0  0  0  0
  -18.4767   44.1750  -23.9127 O   0  0  0  0  0  0  0  0  0  0  0  0
  -19.5238   42.2486  -22.8796 C   0  0  0  0  0  0  0  0  0  0  0  0
  -20.4258   43.1143  -22.2432 O   0  0  0  0  0  0  0  0  0  0  0  0
  -19.6128   40.8836  -22.6711 C   0  0  0  0  0  0  0  0  0  0  0  0
  -19.6398   37.8817  -23.8972 C   0  0  0  0  0  0  0  0  0  0  0  0
  -19.7498   36.5697  -23.7461 O   0  0  0  0  0  0  0  0  0  0  0  0
  -19.0695   35.9200  -22.8416 C   0  0  0  0  0  0  0  0  0  0  0  0
  -19.2298   34.5513  -22.7354 C   0  0  0  0  0  0  0  0  0  0  0  0
  -18.5197   33.8479  -21.7859 C   0  0  0  0  0  0  0  0  0  0  0  0
  -18.6935   32.4902  -21.6973 O   0  0  0  0  0  0  0  0  0  0  0  0
  -17.6352   34.4669  -20.9171 C   0  0  0  0  0  0  0  0  0  0  0  0
  -17.4976   35.8319  -21.0483 C   0  0  0  0  0  0  0  0  0  0  0  0
  -18.1898   36.5645  -21.9836 C   0  0  0  0  0  0  0  0  0  0  0  0
  1  2  2  0
  2  3  1  0
  3  4  1  0
  4  5  2  0
  5  6  1  0
  6  7  2  0
  7  8  1  0
  7  9  1  0
  9 10  1  0
  9 11  2  0
  3 12  2  0
 12 13  1  0
 13 14  1  0
 14 15  2  0
 15 16  1  0
 16 17  1  0
 16 18  2  0
 18 19  1  0
 19 20  2  0
 20  2  1  0
 11  4  1  0
 20 14  1  0
M  END
$$$$
