
     RDKit          3D

 37 41  0  0  0  0  0  0  0  0999 V2000
  -28.7775   15.9224  -29.0276 C   0  0  0  0  0  0  0  0  0  0  0  0
  -27.7386   16.5091  -28.0508 C   0  0  0  0  0  0  0  0  0  0  0  0
  -28.4726   17.1179  -26.9226 C   0  0  0  0  0  0  0  0  0  0  0  0
  -27.0778   15.2275  -27.4673 C   0  0  0  0  0  0  0  0  0  0  0  0
  -27.8804   14.7285  -26.4294 O   0  0  0  0  0  0  0  0  0  0  0  0
  -26.7285   17.2871  -28.7388 C   0  0  0  0  0  0  0  0  0  0  0  0
  -25.8612   16.7236  -29.7035 C   0  0  0  0  0  0  0  0  0  0  0  0
  -25.0741   17.7249  -30.1880 C   0  0  0  0  0  0  0  0  0  0  0  0
  -24.0507   17.7547  -31.1545 C   0  0  0  0  0  0  0  0  0  0  0  0
  -23.4204   18.9213  -31.4565 C   0  0  0  0  0  0  0  0  0  0  0  0
  -22.3902   18.9831  -32.4209 N   0  0  0  0  0  0  0  0  0  0  0  0
  -21.9387   17.9473  -33.2599 C   0  0  0  0  0  0  0  0  0  0  0  0
  -22.4678   16.8164  -33.1709 O   0  0  0  0  0  0  0  0  0  0  0  0
  -20.8393   18.1323  -34.2747 C   0  0  0  0  0  0  0  0  0  0  0  0
  -19.5735   17.4127  -34.0556 C   0  0  0  0  0  0  0  0  0  0  0  0
  -19.1687   16.3649  -34.8495 C   0  0  0  0  0  0  0  0  0  0  0  0
  -17.9986   15.6784  -34.6418 C   0  0  0  0  0  0  0  0  0  0  0  0
  -17.1657   16.0222  -33.6051 C   0  0  0  0  0  0  0  0  0  0  0  0
  -17.5455   17.0653  -32.7970 C   0  0  0  0  0  0  0  0  0  0  0  0
  -18.7279   17.7570  -33.0087 C   0  0  0  0  0  0  0  0  0  0  0  0
  -16.5380   17.2173  -31.8253 O   0  0  0  0  0  0  0  0  0  0  0  0
  -15.7368   16.0314  -31.8337 C   0  0  0  0  0  0  0  0  0  0  0  0
  -16.1291   15.1309  -30.8880 F   0  0  0  0  0  0  0  0  0  0  0  0
  -14.4018   16.3686  -31.6948 F   0  0  0  0  0  0  0  0  0  0  0  0
  -15.9464   15.5423  -33.1372 O   0  0  0  0  0  0  0  0  0  0  0  0
  -20.7894   19.5022  -34.8517 C   0  0  0  0  0  0  0  0  0  0  0  0
  -21.3347   18.3637  -35.6650 C   0  0  0  0  0  0  0  0  0  0  0  0
  -23.7867   20.1087  -30.8048 C   0  0  0  0  0  0  0  0  0  0  0  0
  -23.1503   21.2871  -31.1100 F   0  0  0  0  0  0  0  0  0  0  0  0
  -24.7822   20.0539  -29.8709 C   0  0  0  0  0  0  0  0  0  0  0  0
  -25.4314   18.8894  -29.5492 C   0  0  0  0  0  0  0  0  0  0  0  0
  -26.4434   18.5814  -28.6715 N   0  0  0  0  0  0  0  0  0  0  0  0
  -27.0467   19.5809  -27.8649 C   0  0  0  0  0  0  0  0  0  0  0  0
  -27.8588   20.5767  -28.6414 C   0  0  1  0  0  0  0  0  0  0  0  0
  -29.0299   19.9763  -29.1612 O   0  0  0  0  0  0  0  0  0  0  0  0
  -28.2870   21.7522  -27.7903 C   0  0  0  0  0  0  0  0  0  0  0  0
  -29.2886   21.3343  -26.9079 O   0  0  0  0  0  0  0  0  0  0  0  0
  1  2  1  0
  2  3  1  0
  2  4  1  0
  4  5  1  0
  2  6  1  0
  6  7  2  0
  7  8  1  0
  8  9  2  0
  9 10  1  0
 10 11  1  0
 11 12  1  0
 12 13  2  0
 12 14  1  0
 14 15  1  0
 15 16  2  0
 16 17  1  0
 17 18  2  0
 18 19  1  0
 19 20  2  0
 19 21  1  0
 21 22  1  0
 22 23  1  0
 22 24  1  0
 22 25  1  0
 14 26  1  0
 26 27  1  0
 10 28  2  0
 28 29  1  0
 28 30  1  0
 30 31  2  0
 31 32  1  0
 32 33  1  0
 33 34  1  0
 34 35  1  1
 34 36  1  0
 36 37  1  0
 32  6  1  0
 31  8  1  0
 27 14  1  0
 20 15  1  0
 25 18  1  0
M  END
$$$$
