
     RDKit          3D

 21 20  0  0  0  0  0  0  0  0999 V2000
   -9.8441   -2.0850  -32.7051 C   0  0  0  0  0  0  0  0  0  0  0  0
  -11.2983   -1.8206  -32.5816 C   0  0  0  0  0  0  0  0  0  0  0  0
  -12.0582   -2.5898  -31.9430 O   0  0  0  0  0  0  0  0  0  0  0  0
  -11.8244   -0.7115  -33.1779 O   0  0  0  0  0  0  0  0  0  0  0  0
  -13.1695   -0.3598  -33.1311 C   0  0  0  0  0  0  0  0  0  0  0  0
  -14.1183   -0.8730  -33.9701 C   0  0  0  0  0  0  0  0  0  0  0  0
  -15.4773   -0.4936  -33.8954 C   0  0  0  0  0  0  0  0  0  0  0  0
  -16.4266   -1.1233  -34.8340 C   0  0  0  0  0  0  0  0  0  0  0  0
  -16.9930   -2.3947  -34.1831 C   0  0  0  0  0  0  0  0  0  0  0  0
  -17.5894   -0.2683  -35.1734 C   0  0  0  0  0  0  0  0  0  0  0  0
  -15.8930    0.4108  -32.9708 C   0  0  0  0  0  0  0  0  0  0  0  0
  -17.2397    0.8476  -32.8289 O   0  0  0  0  0  0  0  0  0  0  0  0
  -17.5262    1.7852  -31.8213 C   0  0  0  0  0  0  0  0  0  0  0  0
  -18.9217    2.2019  -31.6870 C   0  0  0  0  0  0  0  0  0  0  0  0
  -19.5617    2.8498  -32.8050 N   0  0  0  0  0  0  0  0  0  0  0  0
  -20.8707    3.3665  -32.3152 C   0  0  0  0  0  0  0  0  0  0  0  0
  -19.9640    1.8216  -33.7783 C   0  0  0  0  0  0  0  0  0  0  0  0
  -14.9294    0.9378  -32.1118 C   0  0  0  0  0  0  0  0  0  0  0  0
  -13.6036    0.5557  -32.1978 C   0  0  0  0  0  0  0  0  0  0  0  0
  -12.5890    1.1289  -31.2722 C   0  0  0  0  0  0  0  0  0  0  0  0
  -15.4816    0.0251  -32.6763 Cl  0  0  0  0  0  0  0  0  0  0  0  0
  1  2  1  0
  2  3  2  0
  2  4  1  0
  4  5  1  0
  5  6  2  0
  6  7  1  0
  7  8  1  0
  8  9  1  0
  8 10  1  0
  7 11  2  0
 11 12  1  0
 12 13  1  0
 13 14  1  0
 14 15  1  0
 15 16  1  0
 15 17  1  0
 11 18  1  0
 18 19  2  0
 19 20  1  0
 19  5  1  0
M  END
$$$$
