
     RDKit          3D

 41 45  0  0  0  0  0  0  0  0999 V2000
  -23.1478   14.1570  -36.2299 C   0  0  0  0  0  0  0  0  0  0  0  0
  -22.0917   15.0084  -35.5725 C   0  0  0  0  0  0  0  0  0  0  0  0
  -22.0958   15.2219  -34.2110 C   0  0  0  0  0  0  0  0  0  0  0  0
  -21.1340   15.9947  -33.5960 C   0  0  0  0  0  0  0  0  0  0  0  0
  -20.1176   16.5929  -34.3214 C   0  0  0  0  0  0  0  0  0  0  0  0
  -19.1570   17.3545  -33.6061 N   0  0  0  0  0  0  0  0  0  0  0  0
  -17.8543   17.1034  -33.5816 N   0  0  0  0  0  0  0  0  0  0  0  0
  -17.2108   18.0205  -32.8465 C   0  0  0  0  0  0  0  0  0  0  0  0
  -15.7447   18.1142  -32.5467 C   0  0  0  0  0  0  0  0  0  0  0  0
  -15.5593   18.1191  -31.0654 C   0  0  0  0  0  0  0  0  0  0  0  0
  -15.0349   16.9361  -33.1843 C   0  0  0  0  0  0  0  0  0  0  0  0
  -15.1797   19.3738  -33.1938 C   0  0  0  0  0  0  0  0  0  0  0  0
  -18.2078   18.8898  -32.3973 C   0  0  0  0  0  0  0  0  0  0  0  0
  -19.4322   18.4715  -32.8725 C   0  0  0  0  0  0  0  0  0  0  0  0
  -20.6906   19.0846  -32.6613 N   0  0  0  0  0  0  0  0  0  0  0  0
  -21.0129   20.3104  -33.2864 C   0  0  0  0  0  0  0  0  0  0  0  0
  -20.1466   20.9130  -33.9530 O   0  0  0  0  0  0  0  0  0  0  0  0
  -22.3379   20.8011  -33.1267 N   0  0  0  0  0  0  0  0  0  0  0  0
  -23.1217   20.5245  -31.9699 C   0  0  0  0  0  0  0  0  0  0  0  0
  -24.1475   21.5605  -31.7516 C   0  0  0  0  0  0  0  0  0  0  0  0
  -24.5949   22.3085  -32.8616 C   0  0  0  0  0  0  0  0  0  0  0  0
  -25.5539   23.2533  -32.6662 C   0  0  0  0  0  0  0  0  0  0  0  0
  -25.9684   23.9520  -33.7553 F   0  0  0  0  0  0  0  0  0  0  0  0
  -26.0959   23.4943  -31.4036 C   0  0  0  0  0  0  0  0  0  0  0  0
  -25.6564   22.7632  -30.3303 C   0  0  0  0  0  0  0  0  0  0  0  0
  -24.6759   21.7912  -30.5048 C   0  0  0  0  0  0  0  0  0  0  0  0
  -24.2010   21.0223  -29.4135 O   0  0  0  0  0  0  0  0  0  0  0  0
  -25.0935   20.0019  -29.0431 C   0  0  0  0  0  0  0  0  0  0  0  0
  -24.8559   18.7328  -29.5405 C   0  0  0  0  0  0  0  0  0  0  0  0
  -25.6578   17.6617  -29.2395 C   0  0  0  0  0  0  0  0  0  0  0  0
  -26.7502   17.8809  -28.3956 C   0  0  0  0  0  0  0  0  0  0  0  0
  -26.9960   19.1424  -27.8969 C   0  0  0  0  0  0  0  0  0  0  0  0
  -28.1126   19.0590  -27.1017 C   0  0  0  0  0  0  0  0  0  0  0  0
  -28.4861   17.7694  -27.1530 N   0  0  0  0  0  0  0  0  0  0  0  0
  -27.6882   17.0543  -27.9167 N   0  0  0  0  0  0  0  0  0  0  0  0
  -27.7690   15.6174  -28.2099 C   0  0  0  0  0  0  0  0  0  0  0  0
  -28.9652   15.4525  -29.1232 C   0  0  0  0  0  0  0  0  0  0  0  0
  -28.6771   14.4410  -30.0611 O   0  0  0  0  0  0  0  0  0  0  0  0
  -26.1701   20.2034  -28.2204 C   0  0  0  0  0  0  0  0  0  0  0  0
  -20.1124   16.3836  -35.6693 C   0  0  0  0  0  0  0  0  0  0  0  0
  -21.0838   15.6005  -36.3007 C   0  0  0  0  0  0  0  0  0  0  0  0
  1  2  1  0
  2  3  2  0
  3  4  1  0
  4  5  2  0
  5  6  1  0
  6  7  1  0
  7  8  2  0
  8  9  1  0
  9 10  1  0
  9 11  1  0
  9 12  1  0
  8 13  1  0
 13 14  2  0
 14 15  1  0
 15 16  1  0
 16 17  2  0
 16 18  1  0
 18 19  1  0
 19 20  1  0
 20 21  2  0
 21 22  1  0
 22 23  1  0
 22 24  2  0
 24 25  1  0
 25 26  2  0
 26 27  1  0
 27 28  1  0
 28 29  2  0
 29 30  1  0
 30 31  2  0
 31 32  1  0
 32 33  1  0
 33 34  2  0
 34 35  1  0
 35 36  1  0
 36 37  1  0
 37 38  1  0
 32 39  2  0
  5 40  1  0
 40 41  2  0
 41  2  1  0
 14  6  1  0
 26 20  1  0
 39 28  1  0
 35 31  1  0
M  END
$$$$
