
     RDKit          3D

 42 46  0  0  0  0  0  0  0  0999 V2000
  -25.3226   18.3735  -33.1494 C   0  0  0  0  0  0  0  0  0  0  0  0
  -24.8837   17.5392  -32.1070 O   0  0  0  0  0  0  0  0  0  0  0  0
  -24.5208   18.0875  -30.8911 C   0  0  0  0  0  0  0  0  0  0  0  0
  -25.3689   18.8720  -30.1658 C   0  0  0  0  0  0  0  0  0  0  0  0
  -25.0318   19.4342  -28.9452 C   0  0  0  0  0  0  0  0  0  0  0  0
  -25.9584   20.2656  -28.1969 C   0  0  0  0  0  0  0  0  0  0  0  0
  -26.9875   20.9826  -28.8501 N   0  0  0  0  0  0  0  0  0  0  0  0
  -25.8465   20.3492  -26.9641 O   0  0  0  0  0  0  0  0  0  0  0  0
  -23.7688   19.1684  -28.4670 C   0  0  0  0  0  0  0  0  0  0  0  0
  -22.8808   18.3700  -29.1866 C   0  0  0  0  0  0  0  0  0  0  0  0
  -23.2479   17.8360  -30.3809 C   0  0  0  0  0  0  0  0  0  0  0  0
  -22.3829   17.0067  -31.1699 N   0  0  0  0  0  0  0  0  0  0  0  0
  -21.0194   17.2638  -31.3580 C   0  0  0  0  0  0  0  0  0  0  0  0
  -20.3822   17.6898  -30.3343 O   0  0  0  0  0  0  0  0  0  0  0  0
  -20.2291   17.1074  -32.5759 C   0  0  2  0  0  0  0  0  0  0  0  0
  -20.5023   15.9028  -33.3374 N   0  0  0  0  0  0  0  0  0  0  0  0
  -19.3274   15.1064  -33.3941 C   0  0  1  0  0  0  0  0  0  0  0  0
  -19.1323   14.3297  -34.6541 C   0  0  0  0  0  0  0  0  0  0  0  0
  -20.0940   13.2021  -34.8407 C   0  0  0  0  0  0  0  0  0  0  0  0
  -21.5246   13.6096  -34.5217 C   0  0  0  0  0  0  0  0  0  0  0  0
  -19.7312   12.1489  -33.7810 C   0  0  0  0  0  0  0  0  0  0  0  0
  -19.9758   12.5172  -36.1729 C   0  0  0  0  0  0  0  0  0  0  0  0
  -18.2326   16.1906  -33.3229 C   0  0  2  0  0  0  0  0  0  0  0  0
  -18.2735   16.8762  -34.6140 C   0  0  0  0  0  0  0  0  0  0  0  0
  -19.2131   17.4537  -35.2106 O   0  0  0  0  0  0  0  0  0  0  0  0
  -16.9557   16.7783  -35.1433 N   0  0  0  0  0  0  0  0  0  0  0  0
  -16.1429   16.0296  -34.2167 C   0  0  0  0  0  0  0  0  0  0  0  0
  -14.8260   15.6597  -34.2817 C   0  0  0  0  0  0  0  0  0  0  0  0
  -14.2296   14.9218  -33.2878 C   0  0  0  0  0  0  0  0  0  0  0  0
  -12.5419   14.4865  -33.4405 Cl  0  0  0  0  0  0  0  0  0  0  0  0
  -14.9741   14.5443  -32.1987 C   0  0  0  0  0  0  0  0  0  0  0  0
  -16.3009   14.9180  -32.1343 C   0  0  0  0  0  0  0  0  0  0  0  0
  -16.9000   15.6548  -33.1240 C   0  0  0  0  0  0  0  0  0  0  0  0
  -18.7927   16.9707  -32.1636 C   0  0  1  0  0  0  0  0  0  0  0  0
  -18.0745   18.0951  -31.6786 C   0  0  0  0  0  0  0  0  0  0  0  0
  -18.1860   19.3375  -32.3372 C   0  0  0  0  0  0  0  0  0  0  0  0
  -17.5396   20.4635  -31.9514 C   0  0  0  0  0  0  0  0  0  0  0  0
  -16.7214   20.4415  -30.8666 C   0  0  0  0  0  0  0  0  0  0  0  0
  -16.5655   19.2435  -30.1680 C   0  0  0  0  0  0  0  0  0  0  0  0
  -15.5303   19.1428  -28.7655 Cl  0  0  0  0  0  0  0  0  0  0  0  0
  -17.2461   18.0966  -30.5900 C   0  0  0  0  0  0  0  0  0  0  0  0
  -17.0559   16.9908  -29.8826 F   0  0  0  0  0  0  0  0  0  0  0  0
  1  2  1  0
  2  3  1  0
  3  4  2  0
  4  5  1  0
  5  6  1  0
  6  7  1  0
  6  8  2  0
  5  9  2  0
  9 10  1  0
 10 11  2  0
 11 12  1  0
 12 13  1  0
 13 14  2  0
 15 13  1  1
 15 16  1  0
 16 17  1  0
 17 18  1  6
 18 19  1  0
 19 20  1  0
 19 21  1  0
 19 22  1  0
 17 23  1  0
 23 24  1  6
 24 25  2  0
 24 26  1  0
 26 27  1  0
 27 28  2  0
 28 29  1  0
 29 30  1  0
 29 31  2  0
 31 32  1  0
 32 33  2  0
 23 34  1  0
 34 35  1  6
 35 36  2  0
 36 37  1  0
 37 38  2  0
 38 39  1  0
 39 40  1  0
 39 41  2  0
 41 42  1  0
 11  3  1  0
 34 15  1  0
 41 35  1  0
 33 23  1  0
 33 27  1  0
M  END
$$$$
