
     RDKit          3D

 24 25  0  0  0  0  0  0  0  0999 V2000
  -16.2486   22.3047  -41.4032 C   0  0  0  0  0  0  0  0  0  0  0  0
  -16.0848   20.8954  -41.9465 C   0  0  0  0  0  0  0  0  0  0  0  0
  -17.3332   20.0916  -41.8383 C   0  0  0  0  0  0  0  0  0  0  0  0
  -17.3394   18.9743  -42.8881 C   0  0  0  0  0  0  0  0  0  0  0  0
  -18.6928   18.3053  -42.9432 C   0  0  0  0  0  0  0  0  0  0  0  0
  -17.6679   19.5986  -40.5501 N   0  0  0  0  0  0  0  0  0  0  0  0
  -16.7780   18.8325  -39.7378 C   0  0  0  0  0  0  0  0  0  0  0  0
  -15.5720   18.3483  -40.1829 C   0  0  0  0  0  0  0  0  0  0  0  0
  -14.7529   17.6314  -39.3298 C   0  0  0  0  0  0  0  0  0  0  0  0
  -13.4346   17.1018  -39.8177 C   0  0  0  0  0  0  0  0  0  0  0  0
  -15.1059   17.3922  -38.0632 N   0  0  0  0  0  0  0  0  0  0  0  0
  -16.2657   17.8450  -37.5946 C   0  0  0  0  0  0  0  0  0  0  0  0
  -16.6978   17.6352  -36.2906 O   0  0  0  0  0  0  0  0  0  0  0  0
  -15.9931   16.9272  -35.3454 C   0  0  0  0  0  0  0  0  0  0  0  0
  -14.9535   17.4772  -34.6280 C   0  0  0  0  0  0  0  0  0  0  0  0
  -14.5980   18.8916  -34.9032 C   0  0  0  0  0  0  0  0  0  0  0  0
  -14.2586   16.7260  -33.6735 C   0  0  0  0  0  0  0  0  0  0  0  0
  -14.6035   15.4119  -33.4313 C   0  0  0  0  0  0  0  0  0  0  0  0
  -13.8839   14.5802  -32.4201 C   0  0  0  0  0  0  0  0  0  0  0  0
  -15.6372   14.8575  -34.1415 C   0  0  0  0  0  0  0  0  0  0  0  0
  -16.3253   15.6162  -35.0929 C   0  0  0  0  0  0  0  0  0  0  0  0
  -17.4464   15.0098  -35.8610 C   0  0  0  0  0  0  0  0  0  0  0  0
  -17.1050   18.5586  -38.4072 C   0  0  0  0  0  0  0  0  0  0  0  0
  -18.4273   19.0848  -37.9029 C   0  0  0  0  0  0  0  0  0  0  0  0
  1  2  1  0
  2  3  1  0
  3  4  1  0
  4  5  1  0
  3  6  1  0
  6  7  1  0
  7  8  2  0
  8  9  1  0
  9 10  1  0
  9 11  2  0
 11 12  1  0
 12 13  1  0
 13 14  1  0
 14 15  2  0
 15 16  1  0
 15 17  1  0
 17 18  2  0
 18 19  1  0
 18 20  1  0
 20 21  2  0
 21 22  1  0
 12 23  2  0
 23 24  1  0
 23  7  1  0
 21 14  1  0
M  END
$$$$
