
     RDKit          3D

 30 33  0  0  0  0  0  0  0  0999 V2000
  -14.5641   18.4809  -31.3991 C   0  0  0  0  0  0  0  0  0  0  0  0
  -15.9783   18.8604  -31.6491 C   0  0  0  0  0  0  0  0  0  0  0  0
  -16.7009   18.4606  -32.7498 C   0  0  0  0  0  0  0  0  0  0  0  0
  -18.0205   18.8237  -32.9669 C   0  0  0  0  0  0  0  0  0  0  0  0
  -18.7448   18.3459  -34.1412 C   0  0  1  0  0  0  0  0  0  0  0  0
  -18.0028   18.8908  -35.3685 C   0  0  0  0  0  0  0  0  0  0  0  0
  -18.8367   16.9006  -34.2610 N   0  0  0  0  0  0  0  0  0  0  0  0
  -20.0775   16.2307  -34.1350 C   0  0  0  0  0  0  0  0  0  0  0  0
  -21.2674   16.9696  -34.0515 C   0  0  0  0  0  0  0  0  0  0  0  0
  -22.4982   16.3700  -33.9094 C   0  0  0  0  0  0  0  0  0  0  0  0
  -22.5975   14.9992  -33.8436 C   0  0  0  0  0  0  0  0  0  0  0  0
  -21.4605   14.2596  -33.9220 C   0  0  0  0  0  0  0  0  0  0  0  0
  -20.2018   14.8567  -34.0671 C   0  0  0  0  0  0  0  0  0  0  0  0
  -19.0820   13.9577  -34.1511 C   0  0  0  0  0  0  0  0  0  0  0  0
  -18.4938   13.7130  -35.2135 O   0  0  0  0  0  0  0  0  0  0  0  0
  -18.6162   13.3210  -33.0092 O   0  0  0  0  0  0  0  0  0  0  0  0
  -18.6070   19.6327  -32.0049 C   0  0  0  0  0  0  0  0  0  0  0  0
  -19.8675   20.0010  -32.2159 N   0  0  0  0  0  0  0  0  0  0  0  0
  -20.5122   20.8023  -31.3382 C   0  0  0  0  0  0  0  0  0  0  0  0
  -21.8436   21.2120  -31.5582 N   0  0  0  0  0  0  0  0  0  0  0  0
  -22.6474   20.6828  -32.6067 C   0  0  0  0  0  0  0  0  0  0  0  0
  -23.9271   20.2006  -31.8838 C   0  0  0  0  0  0  0  0  0  0  0  0
  -24.5321   21.3383  -31.4233 O   0  0  0  0  0  0  0  0  0  0  0  0
  -23.8696   22.0061  -30.4102 C   0  0  0  0  0  0  0  0  0  0  0  0
  -22.4061   22.2051  -30.6655 C   0  0  0  0  0  0  0  0  0  0  0  0
  -19.8111   21.2138  -30.2292 C   0  0  0  0  0  0  0  0  0  0  0  0
  -18.4903   20.8374  -29.9936 C   0  0  0  0  0  0  0  0  0  0  0  0
  -17.8464   21.2048  -28.9918 O   0  0  0  0  0  0  0  0  0  0  0  0
  -17.9101   20.0432  -30.9027 N   0  0  0  0  0  0  0  0  0  0  0  0
  -16.6303   19.6605  -30.7397 C   0  0  0  0  0  0  0  0  0  0  0  0
  1  2  1  0
  2  3  1  0
  3  4  2  0
  4  5  1  0
  5  6  1  6
  5  7  1  0
  7  8  1  0
  8  9  2  0
  9 10  1  0
 10 11  2  0
 11 12  1  0
 12 13  2  0
 13 14  1  0
 14 15  2  0
 14 16  1  0
  4 17  1  0
 17 18  2  0
 18 19  1  0
 19 20  1  0
 20 21  1  0
 21 22  1  0
 22 23  1  0
 23 24  1  0
 24 25  1  0
 19 26  2  0
 26 27  1  0
 27 28  2  0
 27 29  1  0
 29 30  1  0
 30  2  2  0
 13  8  1  0
 29 17  1  0
 25 20  1  0
M  END
$$$$
