
     RDKit          3D

  9  9  0  0  0  0  0  0  0  0999 V2000
  -26.1363   19.0524  -25.4458 O   0  0  0  0  0  0  0  0  0  0  0  0
  -26.8501   18.5074  -26.5087 C   0  0  0  0  0  0  0  0  0  0  0  0
  -27.3655   17.2646  -26.4685 N   0  0  0  0  0  0  0  0  0  0  0  0
  -28.0523   16.7569  -27.5071 C   0  0  0  0  0  0  0  0  0  0  0  0
  -28.2589   17.4908  -28.6631 C   0  0  0  0  0  0  0  0  0  0  0  0
  -29.3262   16.7297  -30.3038 I   0  0  0  0  0  0  0  0  0  0  0  0
  -27.7242   18.7629  -28.6886 C   0  0  0  0  0  0  0  0  0  0  0  0
  -27.8736   19.5712  -29.7885 O   0  0  0  0  0  0  0  0  0  0  0  0
  -27.0556   19.2110  -27.6334 N   0  0  0  0  0  0  0  0  0  0  0  0
  1  2  1  0
  2  3  2  0
  3  4  1  0
  4  5  2  0
  5  6  1  0
  5  7  1  0
  7  8  1  0
  7  9  2  0
  9  2  1  0
M  END
$$$$
