
     RDKit          3D

 15 16  0  0  0  0  0  0  0  0999 V2000
  -19.6868   32.6132  -23.1033 O   0  0  0  0  0  0  0  0  0  0  0  0
  -19.6502   33.3733  -22.1067 C   0  0  0  0  0  0  0  0  0  0  0  0
  -20.7936   33.4839  -21.3357 O   0  0  0  0  0  0  0  0  0  0  0  0
  -18.4116   34.1284  -21.7720 C   0  0  0  0  0  0  0  0  0  0  0  0
  -17.8846   34.8724  -22.9767 C   0  0  0  0  0  0  0  0  0  0  0  0
  -18.6053   36.1284  -23.2492 C   0  0  0  0  0  0  0  0  0  0  0  0
  -19.6886   36.2055  -24.1184 C   0  0  0  0  0  0  0  0  0  0  0  0
  -20.2988   37.4265  -24.3078 C   0  0  0  0  0  0  0  0  0  0  0  0
  -19.8770   38.5690  -23.6705 C   0  0  0  0  0  0  0  0  0  0  0  0
  -18.7959   38.4992  -22.8018 C   0  0  0  0  0  0  0  0  0  0  0  0
  -18.1775   37.2729  -22.6064 C   0  0  0  0  0  0  0  0  0  0  0  0
  -17.0107   37.5289  -21.5732 B   0  0  0  0  0  0  0  0  0  0  0  0
  -16.4360   36.4407  -20.7602 O   0  0  0  0  0  0  0  0  0  0  0  0
  -17.4091   38.8259  -20.9709 O   0  0  0  0  0  0  0  0  0  0  0  0
  -18.0817   39.4739  -21.9730 C   0  0  0  0  0  0  0  0  0  0  0  0
  1  2  2  0
  2  3  1  0
  2  4  1  0
  4  5  1  0
  5  6  1  0
  6  7  2  0
  7  8  1  0
  8  9  2  0
  9 10  1  0
 10 11  2  0
 11 12  1  0
 12 13  1  0
 12 14  1  0
 14 15  1  0
 11  6  1  0
 15 10  1  0
M  END
$$$$
