
     RDKit          3D

 26 27  0  0  0  0  0  0  0  0999 V2000
  -20.2989   36.8625  -26.6179 C   0  0  0  0  0  0  0  0  0  0  0  0
  -20.9772   38.1786  -26.3177 C   0  0  0  0  0  0  0  0  0  0  0  0
  -20.1479   39.0488  -25.5839 O   0  0  0  0  0  0  0  0  0  0  0  0
  -20.3936   39.4487  -24.3110 C   0  0  0  0  0  0  0  0  0  0  0  0
  -21.4859   39.1979  -23.7653 O   0  0  0  0  0  0  0  0  0  0  0  0
  -19.3895   40.1921  -23.5196 C   0  0  0  0  0  0  0  0  0  0  0  0
  -18.9582   41.3351  -23.9740 C   0  0  0  0  0  0  0  0  0  0  0  0
  -19.4531   41.9187  -25.2799 C   0  0  0  0  0  0  0  0  0  0  0  0
  -17.9881   42.0826  -23.2406 N   0  0  0  0  0  0  0  0  0  0  0  0
  -17.5061   41.5613  -22.0164 C   0  0  0  0  0  0  0  0  0  0  0  0
  -16.4938   42.3408  -21.2511 C   0  0  0  0  0  0  0  0  0  0  0  0
  -17.9129   40.4131  -21.5197 C   0  0  0  0  0  0  0  0  0  0  0  0
  -17.4198   39.8706  -20.2586 C   0  0  0  0  0  0  0  0  0  0  0  0
  -17.4263   38.6137  -20.0503 O   0  0  0  0  0  0  0  0  0  0  0  0
  -16.9215   40.6277  -19.2162 O   0  0  0  0  0  0  0  0  0  0  0  0
  -17.6354   40.8164  -18.0006 C   0  0  0  0  0  0  0  0  0  0  0  0
  -18.9079   39.6256  -22.2506 C   0  0  0  0  0  0  0  0  0  0  0  0
  -18.5039   38.1979  -22.3975 C   0  0  0  0  0  0  0  0  0  0  0  0
  -17.2087   37.8436  -22.7439 C   0  0  0  0  0  0  0  0  0  0  0  0
  -16.8084   36.5320  -22.8864 C   0  0  0  0  0  0  0  0  0  0  0  0
  -17.7311   35.5292  -22.6766 C   0  0  0  0  0  0  0  0  0  0  0  0
  -19.0221   35.8421  -22.3325 C   0  0  0  0  0  0  0  0  0  0  0  0
  -19.9804   34.8125  -22.1142 N   0  0  0  0  0  4  0  0  0  0  0  0
  -19.6272   33.6917  -21.6978 O   0  0  0  0  0  0  0  0  0  0  0  0
  -21.3083   35.0058  -22.3483 O   0  0  0  0  0  1  0  0  0  0  0  0
  -19.3872   37.1590  -22.1990 C   0  0  0  0  0  0  0  0  0  0  0  0
  1  2  1  0
  2  3  1  0
  3  4  1  0
  4  5  2  0
  4  6  1  0
  6  7  2  0
  7  8  1  0
  7  9  1  0
  9 10  1  0
 10 11  1  0
 10 12  2  0
 12 13  1  0
 13 14  2  0
 13 15  1  0
 15 16  1  0
 12 17  1  0
 17 18  1  0
 18 19  2  0
 19 20  1  0
 20 21  2  0
 21 22  1  0
 22 23  1  0
 23 24  2  0
 23 25  1  0
 22 26  2  0
 17  6  1  0
 26 18  1  0
M  CHG  2  23   1  25  -1
M  END
$$$$
