
     RDKit          3D

 31 35  0  0  0  0  0  0  0  0999 V2000
  -15.5651   41.9905  -19.8879 C   0  0  0  0  0  0  0  0  0  0  0  0
  -16.3370   42.4707  -21.0904 C   0  0  0  0  0  0  0  0  0  0  0  0
  -16.1991   43.7447  -21.5841 C   0  0  0  0  0  0  0  0  0  0  0  0
  -16.9377   44.1039  -22.6848 C   0  0  0  0  0  0  0  0  0  0  0  0
  -17.8277   43.2329  -23.3317 C   0  0  0  0  0  0  0  0  0  0  0  0
  -17.9573   41.9755  -22.8393 C   0  0  0  0  0  0  0  0  0  0  0  0
  -17.2049   41.6058  -21.7146 C   0  0  0  0  0  0  0  0  0  0  0  0
  -18.8411   40.9870  -23.4630 C   0  0  0  0  0  0  0  0  0  0  0  0
  -19.6953   40.2736  -22.4314 C   0  0  0  0  0  0  0  0  0  0  0  0
  -19.4858   38.7903  -22.3695 C   0  0  0  0  0  0  0  0  0  0  0  0
  -19.5846   38.1417  -23.6379 N   0  0  0  0  0  0  0  0  0  0  0  0
  -18.9676   36.8571  -23.6081 C   0  0  0  0  0  0  0  0  0  0  0  0
  -18.3559   36.3922  -22.3454 C   0  0  0  0  0  0  0  0  0  0  0  0
  -18.5423   34.9618  -22.0397 C   0  0  0  0  0  0  0  0  0  0  0  0
  -19.4211   34.5619  -21.0746 N   0  0  0  0  0  0  0  0  0  0  0  0
  -19.3799   33.2371  -20.9753 C   0  0  0  0  0  0  0  0  0  0  0  0
  -20.1951   32.4756  -20.0360 C   0  0  0  0  0  0  0  0  0  0  0  0
  -19.9643   31.1357  -19.8939 C   0  0  0  0  0  0  0  0  0  0  0  0
  -20.6930   30.3507  -19.0075 C   0  0  0  0  0  0  0  0  0  0  0  0
  -21.6908   30.9276  -18.2339 C   0  0  0  0  0  0  0  0  0  0  0  0
  -21.9349   32.2823  -18.3677 C   0  0  0  0  0  0  0  0  0  0  0  0
  -21.1810   33.0386  -19.2697 C   0  0  0  0  0  0  0  0  0  0  0  0
  -18.5106   32.8281  -21.8442 O   0  0  0  0  0  0  0  0  0  0  0  0
  -17.9771   33.8415  -22.5131 C   0  0  0  0  0  0  0  0  0  0  0  0
  -16.9496   33.7441  -23.5842 C   0  0  0  0  0  0  0  0  0  0  0  0
  -18.9809   38.9078  -24.7088 C   0  0  0  0  0  0  0  0  0  0  0  0
  -17.9868   39.8729  -24.1223 C   0  0  0  0  0  0  0  0  0  0  0  0
  -19.5849   41.5122  -24.4988 O   0  0  0  0  0  0  0  0  0  0  0  0
  -19.4734   42.7578  -25.0156 C   0  0  0  0  0  0  0  0  0  0  0  0
  -20.1991   43.0679  -26.0302 O   0  0  0  0  0  0  0  0  0  0  0  0
  -18.5799   43.7098  -24.4608 N   0  0  0  0  0  0  0  0  0  0  0  0
  1  2  1  0
  2  3  2  0
  3  4  1  0
  4  5  2  0
  5  6  1  0
  6  7  2  0
  6  8  1  0
  8  9  1  0
  9 10  1  0
 10 11  1  0
 11 12  1  0
 12 13  1  0
 13 14  1  0
 14 15  1  0
 15 16  2  0
 16 17  1  0
 17 18  2  0
 18 19  1  0
 19 20  2  0
 20 21  1  0
 21 22  2  0
 16 23  1  0
 23 24  1  0
 24 25  1  0
 11 26  1  0
 26 27  1  0
  8 28  1  0
 28 29  1  0
 29 30  2  0
 29 31  1  0
  7  2  1  0
 27  8  1  0
 31  5  1  0
 24 14  2  0
 22 17  1  0
M  END
$$$$
