
     RDKit          3D

 25 28  0  0  0  0  0  0  0  0999 V2000
  -22.2421    0.6980  -37.0555 O   0  0  0  0  0  0  0  0  0  0  0  0
  -21.1253    0.5153  -36.2200 C   0  0  0  0  0  0  0  0  0  0  0  0
  -21.2121   -0.3079  -35.1323 C   0  0  0  0  0  0  0  0  0  0  0  0
  -20.1064   -0.4763  -34.3220 C   0  0  0  0  0  0  0  0  0  0  0  0
  -18.9106    0.1627  -34.5759 C   0  0  0  0  0  0  0  0  0  0  0  0
  -17.7501   -0.0423  -33.6875 C   0  0  0  0  0  0  0  0  0  0  0  0
  -16.6387    0.7077  -33.6077 N   0  0  0  0  0  0  0  0  0  0  0  0
  -15.8045    0.2005  -32.6758 C   0  0  0  0  0  0  0  0  0  0  0  0
  -14.4913    0.7035  -32.2684 C   0  0  0  0  0  0  0  0  0  0  0  0
  -13.3236    0.1587  -32.7608 C   0  0  0  0  0  0  0  0  0  0  0  0
  -12.0855    0.6579  -32.3554 C   0  0  0  0  0  0  0  0  0  0  0  0
  -11.9986    1.7105  -31.4504 C   0  0  0  0  0  0  0  0  0  0  0  0
  -10.7744    2.1697  -31.0793 F   0  0  0  0  0  0  0  0  0  0  0  0
  -13.1538    2.2438  -30.9681 C   0  0  0  0  0  0  0  0  0  0  0  0
  -14.3676    1.7461  -31.3728 C   0  0  0  0  0  0  0  0  0  0  0  0
  -16.4186   -0.9211  -32.1438 C   0  0  0  0  0  0  0  0  0  0  0  0
  -15.8845   -1.7983  -31.0979 C   0  0  0  0  0  0  0  0  0  0  0  0
  -14.7582   -1.4932  -30.3848 C   0  0  0  0  0  0  0  0  0  0  0  0
  -14.3025   -2.3507  -29.4165 C   0  0  0  0  0  0  0  0  0  0  0  0
  -14.9546   -3.5035  -29.1528 N   0  0  0  0  0  0  0  0  0  0  0  0
  -16.0570   -3.8449  -29.8211 C   0  0  0  0  0  0  0  0  0  0  0  0
  -16.5245   -2.9958  -30.7933 C   0  0  0  0  0  0  0  0  0  0  0  0
  -17.5947   -1.0279  -32.7879 N   0  0  0  0  0  0  0  0  0  0  0  0
  -18.8442    0.9790  -35.6648 C   0  0  0  0  0  0  0  0  0  0  0  0
  -19.9483    1.1690  -36.5039 C   0  0  0  0  0  0  0  0  0  0  0  0
  1  2  1  0
  2  3  2  0
  3  4  1  0
  4  5  2  0
  5  6  1  0
  6  7  2  0
  7  8  1  0
  8  9  1  0
  9 10  2  0
 10 11  1  0
 11 12  2  0
 12 13  1  0
 12 14  1  0
 14 15  2  0
  8 16  2  0
 16 17  1  0
 17 18  2  0
 18 19  1  0
 19 20  2  0
 20 21  1  0
 21 22  2  0
 16 23  1  0
  5 24  1  0
 24 25  2  0
 25  2  1  0
 23  6  1  0
 15  9  1  0
 22 17  1  0
M  END
$$$$
