
     RDKit          3D

 27 30  0  0  0  0  0  0  0  0999 V2000
  -18.7009   43.1891  -21.6380 C   0  0  0  0  0  0  0  0  0  0  0  0
  -17.8710   42.4981  -22.6929 C   0  0  0  0  0  0  0  0  0  0  0  0
  -16.8178   43.4684  -23.1677 C   0  0  0  0  0  0  0  0  0  0  0  0
  -18.8029   42.1095  -23.8254 C   0  0  0  0  0  0  0  0  0  0  0  0
  -19.6086   40.9126  -23.4838 C   0  0  0  0  0  0  0  0  0  0  0  0
  -20.7874   40.9100  -23.8095 O   0  0  0  0  0  0  0  0  0  0  0  0
  -19.0902   39.7222  -22.7732 C   0  0  0  0  0  0  0  0  0  0  0  0
  -18.4189   38.6805  -23.6646 C   0  0  0  0  0  0  0  0  0  0  0  0
  -18.6892   37.3781  -22.9983 C   0  0  0  0  0  0  0  0  0  0  0  0
  -19.4795   36.4240  -23.5043 C   0  0  0  0  0  0  0  0  0  0  0  0
  -19.7374   35.1488  -22.7931 C   0  0  0  0  0  0  0  0  0  0  0  0
  -19.7673   35.2645  -21.2981 C   0  0  0  0  0  0  0  0  0  0  0  0
  -21.1352   35.7728  -20.8953 C   0  0  0  0  0  0  0  0  0  0  0  0
  -19.6112   33.8786  -20.7088 C   0  0  0  0  0  0  0  0  0  0  0  0
  -18.6722   36.1279  -20.7453 C   0  0  0  0  0  0  0  0  0  0  0  0
  -18.0430   36.9905  -21.7487 C   0  0  0  0  0  0  0  0  0  0  0  0
  -16.8819   37.4088  -21.5082 O   0  0  0  0  0  0  0  0  0  0  0  0
  -20.0697   36.5878  -24.7317 O   0  0  0  0  0  0  0  0  0  0  0  0
  -19.8520   37.7385  -25.4943 C   0  0  0  0  0  0  0  0  0  0  0  0
  -20.4972   37.7937  -26.7432 C   0  0  0  0  0  0  0  0  0  0  0  0
  -20.2887   38.9002  -27.5237 C   0  0  0  0  0  0  0  0  0  0  0  0
  -19.4700   39.9108  -27.0791 C   0  0  0  0  0  0  0  0  0  0  0  0
  -18.8427   39.8244  -25.8275 C   0  0  0  0  0  0  0  0  0  0  0  0
  -19.0381   38.7223  -25.0185 C   0  0  0  0  0  0  0  0  0  0  0  0
  -18.1960   40.2537  -21.7164 C   0  0  0  0  0  0  0  0  0  0  0  0
  -18.2245   39.9410  -20.5456 O   0  0  0  0  0  0  0  0  0  0  0  0
  -17.1701   41.2706  -22.1369 C   0  0  0  0  0  0  0  0  0  0  0  0
  1  2  1  0
  2  3  1  0
  2  4  1  0
  4  5  1  0
  5  6  2  0
  5  7  1  0
  7  8  1  0
  8  9  1  0
  9 10  2  0
 10 11  1  0
 11 12  1  0
 12 13  1  0
 12 14  1  0
 12 15  1  0
 15 16  1  0
 16 17  2  0
 10 18  1  0
 18 19  1  0
 19 20  2  0
 20 21  1  0
 21 22  2  0
 22 23  1  0
 23 24  2  0
  7 25  1  0
 25 26  2  0
 25 27  1  0
 27  2  1  0
 24  8  1  0
 16  9  1  0
 24 19  1  0
M  END
$$$$
