
     RDKit          3D

 23 26  0  0  0  0  0  0  0  0999 V2000
  -12.6283   18.7124  -41.8784 C   0  0  0  0  0  0  0  0  0  0  0  0
  -13.0396   18.3523  -40.5197 N   0  0  0  0  0  0  0  0  0  0  0  0
  -14.4295   18.1146  -40.2886 C   0  0  0  0  0  0  0  0  0  0  0  0
  -15.2431   18.3047  -41.2428 O   0  0  0  0  0  0  0  0  0  0  0  0
  -14.9530   17.6644  -39.0082 C   0  0  0  0  0  0  0  0  0  0  0  0
  -16.2627   17.2637  -38.8901 C   0  0  0  0  0  0  0  0  0  0  0  0
  -16.7249   16.8451  -37.6701 C   0  0  0  0  0  0  0  0  0  0  0  0
  -15.8800   16.8309  -36.5867 C   0  0  0  0  0  0  0  0  0  0  0  0
  -16.3108   16.4133  -35.3331 C   0  0  0  0  0  0  0  0  0  0  0  0
  -15.4964   16.3837  -34.2215 C   0  0  0  0  0  0  0  0  0  0  0  0
  -16.1099   15.9120  -32.9590 C   0  0  1  0  0  0  0  0  0  0  0  0
  -17.1789   15.0519  -33.1852 O   0  0  0  0  0  0  0  0  0  0  0  0
  -15.1099   15.3212  -32.0077 C   0  0  0  0  0  0  0  0  0  0  0  0
  -15.8942   15.4217  -30.7006 C   0  0  0  0  0  0  0  0  0  0  0  0
  -16.5021   16.7441  -30.8507 N   0  0  0  0  0  0  0  0  0  0  0  0
  -16.9860   17.7890  -30.1632 C   0  0  0  0  0  0  0  0  0  0  0  0
  -17.4197   18.7392  -30.9988 N   0  0  0  0  0  0  0  0  0  0  0  0
  -17.2093   18.2938  -32.2443 C   0  0  0  0  0  0  0  0  0  0  0  0
  -16.6375   17.0506  -32.1413 C   0  0  0  0  0  0  0  0  0  0  0  0
  -14.1964   16.7812  -34.3376 C   0  0  0  0  0  0  0  0  0  0  0  0
  -13.7242   17.2038  -35.5626 C   0  0  0  0  0  0  0  0  0  0  0  0
  -14.5539   17.2296  -36.6761 C   0  0  0  0  0  0  0  0  0  0  0  0
  -14.1247   17.6415  -37.9081 C   0  0  0  0  0  0  0  0  0  0  0  0
  1  2  1  0
  2  3  1  0
  3  4  2  0
  3  5  1  0
  5  6  2  0
  6  7  1  0
  7  8  2  0
  8  9  1  0
  9 10  2  0
 10 11  1  0
 11 12  1  6
 11 13  1  0
 13 14  1  0
 14 15  1  0
 15 16  1  0
 16 17  2  0
 17 18  1  0
 18 19  2  0
 10 20  1  0
 20 21  2  0
 21 22  1  0
 22 23  2  0
 23  5  1  0
 22  8  1  0
 19 11  1  0
 19 15  1  0
M  END
$$$$
