
     RDKit          3D

 17 18  0  0  0  0  0  0  0  0999 V2000
  -30.2554   18.6967  -29.6752 O   0  0  0  0  0  0  0  0  0  0  0  0
  -30.6944   19.5887  -28.8689 C   0  0  0  0  0  0  0  0  0  0  0  0
  -31.9707   20.0392  -29.0697 O   0  0  0  0  0  0  0  0  0  0  0  0
  -29.7870   20.0433  -27.8035 C   0  0  0  0  0  0  0  0  0  0  0  0
  -30.2202   20.9966  -26.8833 C   0  0  0  0  0  0  0  0  0  0  0  0
  -29.3597   21.4160  -25.8981 C   0  0  0  0  0  0  0  0  0  0  0  0
  -28.0849   20.9144  -25.8025 C   0  0  0  0  0  0  0  0  0  0  0  0
  -27.7173   19.9952  -26.7160 N   0  0  0  0  0  0  0  0  0  0  0  0
  -28.5273   19.5658  -27.6857 C   0  0  0  0  0  0  0  0  0  0  0  0
  -28.0435   18.5810  -28.5777 N   0  0  0  0  0  0  0  0  0  0  0  0
  -26.9618   17.7859  -28.1593 C   0  0  0  0  0  0  0  0  0  0  0  0
  -26.8300   17.5990  -26.7779 C   0  0  0  0  0  0  0  0  0  0  0  0
  -25.7899   16.8158  -26.3335 C   0  0  0  0  0  0  0  0  0  0  0  0
  -24.8866   16.2179  -27.1825 C   0  0  0  0  0  0  0  0  0  0  0  0
  -23.5857   15.2284  -26.5511 Cl  0  0  0  0  0  0  0  0  0  0  0  0
  -25.0413   16.4202  -28.5416 C   0  0  0  0  0  0  0  0  0  0  0  0
  -26.0764   17.2027  -29.0290 C   0  0  0  0  0  0  0  0  0  0  0  0
  1  2  2  0
  2  3  1  0
  2  4  1  0
  4  5  2  0
  5  6  1  0
  6  7  2  0
  7  8  1  0
  8  9  2  0
  9 10  1  0
 10 11  1  0
 11 12  2  0
 12 13  1  0
 13 14  2  0
 14 15  1  0
 14 16  1  0
 16 17  2  0
  9  4  1  0
 17 11  1  0
M  END
$$$$
