
     RDKit          3D

  9  7  0  0  0  0  0  0  0  0999 V2000
    2.5666    6.8909  -41.3381 C   0  0  0  0  0  0  0  0  0  0  0  0
    2.9457    6.8317  -39.9036 C   0  0  0  0  0  0  0  0  0  0  0  0
    1.9761    7.5671  -39.0812 N   0  0  0  0  0  0  0  0  0  0  0  0
    1.9801    8.9820  -39.2554 C   0  0  0  0  0  0  0  0  0  0  0  0
    0.8860    9.7690  -38.6459 C   0  0  0  0  0  0  0  0  0  0  0  0
    1.1557    6.8738  -38.2321 C   0  0  0  0  0  0  0  0  0  0  0  0
    0.0949    7.5140  -37.1949 S   0  0  0  0  0  0  0  0  0  0  0  0
    1.2701    5.0496  -38.1844 S   0  0  0  0  0  1  0  0  0  0  0  0
    1.8849    7.8858  -39.5033 Na  0  0  0  0  0 15  0  0  0  0  0  0
  1  2  1  0
  2  3  1  0
  3  4  1  0
  4  5  1  0
  3  6  1  0
  6  7  2  0
  6  8  1  0
M  CHG  2   8  -1   9   1
M  END
$$$$
