
     RDKit          3D

 38 44  0  0  0  0  0  0  0  0999 V2000
  -17.4335   40.9104  -18.9170 O   0  0  0  0  0  0  0  0  0  0  0  0
  -17.6914   40.7619  -20.1501 C   0  0  0  0  0  0  0  0  0  0  0  0
  -17.7409   39.5211  -20.8229 N   0  0  0  0  0  0  0  0  0  0  0  0
  -18.0568   39.8079  -22.1747 C   0  0  0  0  0  0  0  0  0  0  0  0
  -18.1960   38.9873  -23.1181 O   0  0  0  0  0  0  0  0  0  0  0  0
  -18.2066   41.2796  -22.3332 C   0  0  0  0  0  0  0  0  0  0  0  0
  -18.5085   41.8882  -23.6279 C   0  0  0  0  0  0  0  0  0  0  0  0
  -17.7114   42.4996  -24.5363 C   0  0  0  0  0  0  0  0  0  0  0  0
  -18.4750   42.9195  -25.5474 N   0  0  0  0  0  0  0  0  0  0  0  0
  -19.7474   42.5768  -25.2827 C   0  0  0  0  0  0  0  0  0  0  0  0
  -20.9481   42.7593  -25.9702 C   0  0  0  0  0  0  0  0  0  0  0  0
  -22.1476   42.3083  -25.4701 C   0  0  0  0  0  0  0  0  0  0  0  0
  -22.1651   41.6583  -24.2570 C   0  0  0  0  0  0  0  0  0  0  0  0
  -20.9644   41.4926  -23.6015 C   0  0  0  0  0  0  0  0  0  0  0  0
  -19.7761   41.9411  -24.1015 N   0  0  0  0  0  0  0  0  0  0  0  0
  -17.9914   41.8202  -21.1483 C   0  0  0  0  0  0  0  0  0  0  0  0
  -18.0087   43.2185  -20.7855 C   0  0  0  0  0  0  0  0  0  0  0  0
  -19.0457   44.0415  -20.4327 C   0  0  0  0  0  0  0  0  0  0  0  0
  -18.5751   45.2617  -20.1488 N   0  0  0  0  0  0  0  0  0  0  0  0
  -17.2396   45.2553  -20.3091 C   0  0  0  0  0  0  0  0  0  0  0  0
  -16.3209   46.2857  -20.1268 C   0  0  0  0  0  0  0  0  0  0  0  0
  -15.0017   46.0188  -20.3552 C   0  0  0  0  0  0  0  0  0  0  0  0
  -14.6002   44.7561  -20.7553 C   0  0  0  0  0  0  0  0  0  0  0  0
  -13.2697   44.5118  -20.9784 F   0  0  0  0  0  0  0  0  0  0  0  0
  -15.4985   43.7255  -20.9391 C   0  0  0  0  0  0  0  0  0  0  0  0
  -16.8333   43.9860  -20.7116 C   0  0  0  0  0  0  0  0  0  0  0  0
  -16.6277   47.6545  -19.6824 C   0  0  0  0  0  0  0  0  0  0  0  0
  -17.7404   48.1594  -20.5243 N   0  0  0  0  0  0  0  0  0  0  0  0
  -17.4328   49.3867  -21.1375 C   0  0  0  0  0  0  0  0  0  0  0  0
  -16.5499   49.2982  -22.1307 O   0  0  0  0  0  0  0  0  0  0  0  0
  -17.8790   50.6805  -20.8993 N   0  0  0  0  0  0  0  0  0  0  0  0
  -17.6457   51.6887  -21.9566 C   0  0  0  0  0  0  0  0  0  0  0  0
  -17.0897   52.9456  -21.3454 C   0  0  0  0  0  0  0  0  0  0  0  0
  -18.0609   53.5178  -20.3279 C   0  0  0  0  0  0  0  0  0  0  0  0
  -19.1751   52.5264  -20.0986 C   0  0  0  0  0  0  0  0  0  0  0  0
  -18.5334   51.1522  -19.7332 C   0  0  0  0  0  0  0  0  0  0  0  0
  -19.0090   47.5760  -20.7669 C   0  0  0  0  0  0  0  0  0  0  0  0
  -19.3232   46.4527  -19.7486 C   0  0  0  0  0  0  0  0  0  0  0  0
  1  2  2  0
  2  3  1  0
  3  4  1  0
  4  5  2  0
  4  6  1  0
  6  7  1  0
  7  8  2  0
  8  9  1  0
  9 10  2  0
 10 11  1  0
 11 12  2  0
 12 13  1  0
 13 14  2  0
 14 15  1  0
  6 16  2  0
 16 17  1  0
 17 18  2  0
 18 19  1  0
 19 20  1  0
 20 21  2  0
 21 22  1  0
 22 23  2  0
 23 24  1  0
 23 25  1  0
 25 26  2  0
 21 27  1  0
 27 28  1  0
 28 29  1  0
 29 30  2  0
 29 31  1  0
 31 32  1  0
 32 33  1  0
 33 34  1  0
 34 35  1  0
 35 36  1  0
 28 37  1  0
 37 38  1  0
 16  2  1  0
 26 17  1  0
 36 31  1  0
 15  7  1  0
 38 19  1  0
 15 10  1  0
 26 20  1  0
M  END
$$$$
