
     RDKit          3D

 35 38  0  0  0  0  0  0  0  0999 V2000
  -15.1709   40.9366  -17.3530 C   0  0  0  0  0  0  0  0  0  0  0  0
  -14.3631   41.4662  -18.4054 N   0  0  0  0  0  0  0  0  0  0  0  0
  -14.8143   42.7506  -18.8831 C   0  0  1  0  0  0  0  0  0  0  0  0
  -13.5740   43.6284  -19.0157 C   0  0  0  0  0  0  0  0  0  0  0  0
  -15.4082   42.5186  -20.2585 C   0  0  0  0  0  0  0  0  0  0  0  0
  -14.5880   42.5147  -21.1978 O   0  0  0  0  0  0  0  0  0  0  0  0
  -16.7899   42.3263  -20.4172 N   0  0  0  0  0  0  0  0  0  0  0  0
  -17.6046   42.4191  -21.6001 C   0  0  2  0  0  0  0  0  0  0  0  0
  -18.6826   43.3756  -21.4923 C   0  0  0  0  0  0  0  0  0  0  0  0
  -19.6980   42.9844  -20.7704 O   0  0  0  0  0  0  0  0  0  0  0  0
  -18.8054   44.6702  -22.0447 N   0  0  0  0  0  0  0  0  0  0  0  0
  -17.8116   45.2045  -22.9551 C   0  0  0  0  0  0  0  0  0  0  0  0
  -18.7061   45.8818  -23.9922 C   0  0  0  0  0  0  0  0  0  0  0  0
  -19.7184   46.5473  -23.1096 C   0  0  0  0  0  0  0  0  0  0  0  0
  -19.8554   45.6094  -21.9017 C   0  0  1  0  0  0  0  0  0  0  0  0
  -21.2193   44.9608  -22.0227 C   0  0  0  0  0  0  0  0  0  0  0  0
  -22.2956   44.9675  -21.5705 N   0  0  0  0  0  0  0  0  0  0  0  0
  -23.3690   44.2868  -21.8291 C   0  0  0  0  0  0  0  0  0  0  0  0
  -24.7070   44.4506  -21.1543 C   0  0  0  0  0  0  0  0  0  0  0  0
  -25.6769   43.8136  -21.6080 O   0  0  0  0  0  0  0  0  0  0  0  0
  -24.8787   45.3199  -20.0097 C   0  0  0  0  0  0  0  0  0  0  0  0
  -26.1793   45.7628  -19.7609 C   0  0  0  0  0  0  0  0  0  0  0  0
  -26.3776   46.6069  -18.7061 C   0  0  0  0  0  0  0  0  0  0  0  0
  -25.3823   47.0501  -17.8721 C   0  0  0  0  0  0  0  0  0  0  0  0
  -25.7078   47.8824  -16.8639 F   0  0  0  0  0  0  0  0  0  0  0  0
  -24.1072   46.6076  -18.1274 C   0  0  0  0  0  0  0  0  0  0  0  0
  -23.8661   45.7475  -19.1931 C   0  0  0  0  0  0  0  0  0  0  0  0
  -23.1785   43.3632  -22.8627 C   0  0  0  0  0  0  0  0  0  0  0  0
  -21.4450   43.6100  -23.3245 S   0  0  0  0  0  0  0  0  0  0  0  0
  -18.0252   41.0122  -22.0304 C   0  0  0  0  0  0  0  0  0  0  0  0
  -18.7910   41.2133  -23.3387 C   0  0  0  0  0  0  0  0  0  0  0  0
  -19.4886   39.9394  -23.7343 C   0  0  0  0  0  0  0  0  0  0  0  0
  -18.7846   38.7879  -23.0699 C   0  0  0  0  0  0  0  0  0  0  0  0
  -19.0506   38.8671  -21.5808 C   0  0  0  0  0  0  0  0  0  0  0  0
  -18.9553   40.3207  -21.0968 C   0  0  0  0  0  0  0  0  0  0  0  0
  1  2  1  0
  2  3  1  0
  3  4  1  6
  3  5  1  0
  5  6  2  0
  5  7  1  0
  8  7  1  1
  8  9  1  0
  9 10  2  0
  9 11  1  0
 11 12  1  0
 12 13  1  0
 13 14  1  0
 14 15  1  0
 15 16  1  6
 16 17  2  0
 17 18  1  0
 18 19  1  0
 19 20  2  0
 19 21  1  0
 21 22  2  0
 22 23  1  0
 23 24  2  0
 24 25  1  0
 24 26  1  0
 26 27  2  0
 18 28  2  0
 28 29  1  0
  8 30  1  0
 30 31  1  0
 31 32  1  0
 32 33  1  0
 33 34  1  0
 34 35  1  0
 15 11  1  0
 29 16  1  0
 35 30  1  0
 27 21  1  0
M  END
$$$$
