
     RDKit          3D

 32 36  0  0  0  0  0  0  0  0999 V2000
  -19.3261   40.5798  -26.4242 C   0  0  0  0  0  0  0  0  0  0  0  0
  -19.2307   41.9948  -26.1373 N   0  0  0  0  0  0  0  0  0  0  0  0
  -19.5739   42.9119  -27.2010 C   0  0  0  0  0  0  0  0  0  0  0  0
  -18.8133   42.4337  -24.8802 C   0  0  0  0  0  0  0  0  0  0  0  0
  -18.5770   43.6836  -24.7010 O   0  0  0  0  0  0  0  0  0  0  0  0
  -18.6032   41.6199  -23.6958 C   0  0  0  0  0  0  0  0  0  0  0  0
  -18.0040   42.1427  -22.5536 C   0  0  0  0  0  0  0  0  0  0  0  0
  -17.9566   41.1368  -21.6482 C   0  0  0  0  0  0  0  0  0  0  0  0
  -17.4672   41.0729  -20.3364 C   0  0  0  0  0  0  0  0  0  0  0  0
  -17.5761   39.9035  -19.7097 N   0  0  0  0  0  0  0  0  0  0  0  0
  -18.1248   38.8022  -20.2701 C   0  0  0  0  0  0  0  0  0  0  0  0
  -18.2047   37.5716  -19.5266 N   0  0  0  0  0  0  0  0  0  0  0  0
  -18.0873   36.3438  -20.2134 C   0  0  0  0  0  0  0  0  0  0  0  0
  -18.4431   36.2443  -21.5281 C   0  0  0  0  0  0  0  0  0  0  0  0
  -18.3245   35.0308  -22.2095 C   0  0  0  0  0  0  0  0  0  0  0  0
  -17.8435   33.9191  -21.5500 C   0  0  0  0  0  0  0  0  0  0  0  0
  -17.7205   32.6731  -22.2106 N   0  0  0  0  0  0  0  0  0  0  0  0
  -17.1331   31.4893  -21.5830 C   0  0  0  0  0  0  0  0  0  0  0  0
  -16.2683   30.8027  -22.6248 C   0  0  0  0  0  0  0  0  0  0  0  0
  -15.8675   31.6884  -23.6921 N   0  0  0  0  0  0  0  0  0  0  0  0
  -17.0017   32.1671  -24.4629 C   0  0  0  0  0  0  0  0  0  0  0  0
  -18.1854   32.4452  -23.5864 C   0  0  0  0  0  0  0  0  0  0  0  0
  -17.4989   34.0724  -20.2260 C   0  0  0  0  0  0  0  0  0  0  0  0
  -17.6220   35.2690  -19.5755 N   0  0  0  0  0  0  0  0  0  0  0  0
  -18.5867   38.8883  -21.5280 N   0  0  0  0  0  0  0  0  0  0  0  0
  -18.5182   40.0412  -22.2463 C   0  0  0  0  0  0  0  0  0  0  0  0
  -18.9243   40.3336  -23.5240 N   0  0  0  0  0  0  0  0  0  0  0  0
  -19.5382   39.3581  -24.3606 C   0  0  0  0  0  0  0  0  0  0  0  0
  -18.6427   38.1870  -24.7266 C   0  0  0  0  0  0  0  0  0  0  0  0
  -19.6513   37.1927  -25.2265 C   0  0  0  0  0  0  0  0  0  0  0  0
  -20.7709   37.3052  -24.2243 C   0  0  0  0  0  0  0  0  0  0  0  0
  -20.8519   38.8190  -23.9684 C   0  0  0  0  0  0  0  0  0  0  0  0
  1  2  1  0
  2  3  1  0
  2  4  1  0
  4  5  2  0
  4  6  1  0
  6  7  2  0
  7  8  1  0
  8  9  2  0
  9 10  1  0
 10 11  2  0
 11 12  1  0
 12 13  1  0
 13 14  2  0
 14 15  1  0
 15 16  2  0
 16 17  1  0
 17 18  1  0
 18 19  1  0
 19 20  1  0
 20 21  1  0
 21 22  1  0
 16 23  1  0
 23 24  2  0
 11 25  1  0
 25 26  2  0
 26 27  1  0
 27 28  1  0
 28 29  1  0
 29 30  1  0
 30 31  1  0
 31 32  1  0
 27  6  1  0
 32 28  1  0
 26  8  1  0
 24 13  1  0
 22 17  1  0
M  END
$$$$
