
     RDKit          3D

 39 39  0  0  0  0  0  0  0  0999 V2000
  -11.5040   46.7292  -14.1838 C   0  0  0  0  0  0  0  0  0  0  0  0
  -12.1038   46.6416  -15.3524 O   0  0  0  0  0  0  0  0  0  0  0  0
  -13.0582   47.4224  -15.7814 C   0  0  0  0  0  0  0  0  0  0  0  0
  -13.6056   47.3038  -17.1334 C   0  0  0  0  0  0  0  0  0  0  0  0
  -15.0174   47.5054  -17.4462 C   0  0  0  0  0  0  0  0  0  0  0  0
  -15.9590   46.5356  -17.1831 O   0  0  0  0  0  0  0  0  0  0  0  0
  -16.9502   46.2908  -18.1224 C   0  0  0  0  0  0  0  0  0  0  0  0
  -16.8998   45.1682  -18.9522 C   0  0  0  0  0  0  0  0  0  0  0  0
  -17.8767   44.9199  -19.8838 C   0  0  0  0  0  0  0  0  0  0  0  0
  -17.7971   43.7368  -20.7383 C   0  0  0  0  0  0  0  0  0  0  0  0
  -16.9624   42.6250  -20.2609 C   0  0  1  0  0  0  0  0  0  0  0  0
  -17.1770   41.3704  -21.0408 C   0  0  0  0  0  0  0  0  0  0  0  0
  -18.3674   40.5378  -20.7698 C   0  0  2  0  0  0  0  0  0  0  0  0
  -18.5070   39.9381  -19.5023 N   0  0  0  0  0  0  0  0  0  0  0  0
  -18.5813   39.5289  -21.9000 C   0  0  1  0  0  0  0  0  0  0  0  0
  -19.2235   40.0925  -22.9763 O   0  0  0  0  0  0  0  0  0  0  0  0
  -17.4591   38.6199  -22.1691 C   0  0  0  0  0  0  0  0  0  0  0  0
  -17.7042   37.2234  -22.5765 C   0  0  2  0  0  0  0  0  0  0  0  0
  -18.5355   37.0330  -23.7866 C   0  0  0  0  0  0  0  0  0  0  0  0
  -18.0712   36.9215  -24.9612 O   0  0  0  0  0  0  0  0  0  0  0  0
  -19.9679   36.9631  -23.6792 N   0  0  0  0  0  0  0  0  0  0  0  0
  -20.7612   37.9888  -24.3165 C   0  0  0  0  0  0  0  0  0  0  0  0
  -20.2644   38.2693  -25.7140 C   0  0  0  0  0  0  0  0  0  0  0  0
  -19.8250   39.7122  -25.7632 C   0  0  0  0  0  0  0  0  0  0  0  0
  -19.0789   37.3682  -25.9775 C   0  0  0  0  0  0  0  0  0  0  0  0
  -21.3344   38.0406  -26.7069 C   0  0  0  0  0  0  0  0  0  0  0  0
  -21.4518   38.8370  -27.8712 N   0  0  0  0  0  0  0  0  0  0  0  0
  -22.1530   37.1110  -26.4975 O   0  0  0  0  0  0  0  0  0  0  0  0
  -18.2535   36.4080  -21.4061 C   0  0  0  0  0  0  0  0  0  0  0  0
  -19.7099   36.1158  -21.5043 C   0  0  0  0  0  0  0  0  0  0  0  0
  -17.4263   35.1434  -21.2276 C   0  0  0  0  0  0  0  0  0  0  0  0
  -15.4637   42.8732  -20.2501 C   0  0  0  0  0  0  0  0  0  0  0  0
  -14.7641   42.2631  -19.0691 C   0  0  0  0  0  0  0  0  0  0  0  0
  -14.7897   42.6608  -21.5636 C   0  0  0  0  0  0  0  0  0  0  0  0
  -18.9101   45.8034  -19.9829 C   0  0  0  0  0  0  0  0  0  0  0  0
  -18.9713   46.9106  -19.1729 C   0  0  0  0  0  0  0  0  0  0  0  0
  -18.0061   47.1642  -18.2462 C   0  0  0  0  0  0  0  0  0  0  0  0
  -18.0726   48.2841  -17.4301 O   0  0  0  0  0  0  0  0  0  0  0  0
  -18.9650   49.3256  -17.7379 C   0  0  0  0  0  0  0  0  0  0  0  0
  1  2  1  0
  2  3  1  0
  3  4  1  0
  4  5  1  0
  5  6  1  0
  6  7  1  0
  7  8  2  0
  8  9  1  0
  9 10  1  0
 11 10  1  6
 11 12  1  0
 12 13  1  0
 13 14  1  1
 13 15  1  0
 15 16  1  6
 15 17  1  0
 18 17  1  1
 18 19  1  0
 19 20  2  0
 19 21  1  0
 21 22  1  0
 22 23  1  0
 23 24  1  0
 23 25  1  0
 23 26  1  0
 26 27  1  0
 26 28  2  0
 18 29  1  0
 29 30  1  0
 29 31  1  0
 11 32  1  0
 32 33  1  0
 32 34  1  0
  9 35  2  0
 35 36  1  0
 36 37  2  0
 37 38  1  0
 38 39  1  0
 37  7  1  0
M  END
$$$$
