
     RDKit          3D

 23 26  0  0  0  0  0  0  0  0999 V2000
  -23.2448   12.2316  -23.7594 C   0  0  0  0  0  0  0  0  0  0  0  0
  -22.4655   13.1387  -23.6223 C   0  0  0  0  0  0  0  0  0  0  0  0
  -21.5267   14.2150  -23.4357 C   0  0  2  0  0  0  0  0  0  0  0  0
  -21.2909   14.9152  -24.6106 O   0  0  0  0  0  0  0  0  0  0  0  0
  -20.1982   13.6459  -22.9777 C   0  0  0  0  0  0  0  0  0  0  0  0
  -19.5790   14.7251  -22.1553 C   0  0  0  0  0  0  0  0  0  0  0  0
  -20.6480   15.7730  -21.9188 C   0  0  0  0  0  0  0  0  0  0  0  0
  -20.5448   16.2873  -20.5343 C   0  0  0  0  0  0  0  0  0  0  0  0
  -20.8331   17.7751  -20.4227 C   0  0  0  0  0  0  0  0  0  0  0  0
  -20.0868   18.2818  -19.2020 C   0  0  0  0  0  0  0  0  0  0  0  0
  -20.3672   17.2954  -18.1008 C   0  0  0  0  0  0  0  0  0  0  0  0
  -19.6341   17.4418  -17.0250 C   0  0  0  0  0  0  0  0  0  0  0  0
  -19.8059   16.5531  -15.8893 C   0  0  0  0  0  0  0  0  0  0  0  0
  -19.6020   16.9404  -14.7287 O   0  0  0  0  0  0  0  0  0  0  0  0
  -20.2419   15.1543  -16.2306 C   0  0  0  0  0  0  0  0  0  0  0  0
  -21.4395   15.2735  -17.1086 C   0  0  0  0  0  0  0  0  0  0  0  0
  -21.3729   16.2566  -18.2084 C   0  0  2  0  0  0  0  0  0  0  0  0
  -21.3317   15.4947  -19.5165 C   0  0  0  0  0  0  0  0  0  0  0  0
  -22.7094   15.1424  -19.9743 C   0  0  0  0  0  0  0  0  0  0  0  0
  -22.5864   14.3317  -21.2473 C   0  0  0  0  0  0  0  0  0  0  0  0
  -21.9431   15.1645  -22.3064 C   0  0  2  0  0  0  0  0  0  0  0  0
  -22.8616   16.2358  -22.8194 C   0  0  0  0  0  0  0  0  0  0  0  0
  -22.2428   17.0572  -23.9238 C   0  0  0  0  0  0  0  0  0  0  0  0
  1  2  3  0
  2  3  1  0
  3  4  1  6
  3  5  1  0
  5  6  1  0
  6  7  1  0
  7  8  1  0
  8  9  1  0
  9 10  1  0
 10 11  1  0
 11 12  2  0
 12 13  1  0
 13 14  2  0
 13 15  1  0
 15 16  1  0
 17 16  1  1
 17 18  1  0
 18 19  1  0
 19 20  1  0
 20 21  1  0
 21 22  1  6
 22 23  1  0
 21  3  1  0
 21  7  1  0
 18  8  1  0
 17 11  1  0
M  END
$$$$
