
     RDKit          3D

 50 53  0  0  0  0  0  0  0  0999 V2000
  -21.2543   24.8799  -45.5070 C   0  0  0  0  0  0  0  0  0  0  0  0
  -20.2691   24.2722  -44.5350 C   0  0  0  0  0  0  0  0  0  0  0  0
  -19.1573   25.2798  -44.2272 C   0  0  0  0  0  0  0  0  0  0  0  0
  -19.6243   23.0746  -45.0751 C   0  0  0  0  0  0  0  0  0  0  0  0
  -18.5108   22.5857  -45.2359 N   0  0  0  0  0  0  0  0  0  0  0  0
  -18.1828   21.4639  -45.7580 C   0  0  0  0  0  0  0  0  0  0  0  0
  -16.7579   20.9634  -45.9101 C   0  0  0  0  0  0  0  0  0  0  0  0
  -15.9814   21.2989  -44.7593 N   0  0  0  0  0  0  0  0  0  0  0  0
  -16.5425   22.0606  -43.6554 C   0  0  0  0  0  0  0  0  0  0  0  0
  -14.6130   20.8974  -44.6476 C   0  0  0  0  0  0  0  0  0  0  0  0
  -13.8523   21.4686  -43.7987 O   0  0  0  0  0  0  0  0  0  0  0  0
  -14.0301   19.8787  -45.4421 N   0  0  0  0  0  0  0  0  0  0  0  0
  -12.7827   19.2899  -45.0662 C   0  0  2  0  0  0  0  0  0  0  0  0
  -12.9025   18.4743  -43.8212 C   0  0  0  0  0  0  0  0  0  0  0  0
  -13.1689   17.2490  -43.9052 O   0  0  0  0  0  0  0  0  0  0  0  0
  -12.7223   19.0563  -42.5462 N   0  0  0  0  0  0  0  0  0  0  0  0
  -12.8024   18.2747  -41.2822 C   0  0  1  0  0  0  0  0  0  0  0  0
  -11.6088   18.4633  -40.4734 C   0  0  0  0  0  0  0  0  0  0  0  0
  -10.2744   18.3842  -41.0228 C   0  0  0  0  0  0  0  0  0  0  0  0
   -9.6769   17.1698  -41.2336 C   0  0  0  0  0  0  0  0  0  0  0  0
   -8.3823   17.0201  -41.7526 C   0  0  0  0  0  0  0  0  0  0  0  0
   -7.6791   18.1453  -42.0655 C   0  0  0  0  0  0  0  0  0  0  0  0
   -8.2580   19.3776  -41.8630 C   0  0  0  0  0  0  0  0  0  0  0  0
   -9.5262   19.5203  -41.3543 C   0  0  0  0  0  0  0  0  0  0  0  0
  -14.1599   18.3824  -40.7957 C   0  0  0  0  0  0  0  0  0  0  0  0
  -15.3332   17.8782  -41.4993 C   0  0  2  0  0  0  0  0  0  0  0  0
  -15.4706   18.1598  -42.8404 O   0  0  0  0  0  0  0  0  0  0  0  0
  -16.6555   18.0375  -40.8056 C   0  0  2  0  0  0  0  0  0  0  0  0
  -17.4673   19.2097  -41.2917 C   0  0  0  0  0  0  0  0  0  0  0  0
  -18.7414   19.1805  -40.5299 C   0  0  0  0  0  0  0  0  0  0  0  0
  -18.9054   18.1917  -39.5873 C   0  0  0  0  0  0  0  0  0  0  0  0
  -20.0464   18.0743  -38.8239 C   0  0  0  0  0  0  0  0  0  0  0  0
  -21.0862   18.9818  -38.9973 C   0  0  0  0  0  0  0  0  0  0  0  0
  -20.9046   19.9650  -39.9452 C   0  0  0  0  0  0  0  0  0  0  0  0
  -19.7571   20.0702  -40.7021 C   0  0  0  0  0  0  0  0  0  0  0  0
  -16.5128   18.1862  -39.3718 N   0  0  0  0  0  0  0  0  0  0  0  0
  -16.4260   17.0681  -38.4762 C   0  0  0  0  0  0  0  0  0  0  0  0
  -16.6209   15.9097  -38.9015 O   0  0  0  0  0  0  0  0  0  0  0  0
  -16.1293   17.2276  -37.1345 O   0  0  0  0  0  0  0  0  0  0  0  0
  -16.9769   16.7956  -36.0858 C   0  0  0  0  0  0  0  0  0  0  0  0
  -16.2928   17.0910  -34.8012 C   0  0  0  0  0  0  0  0  0  0  0  0
  -15.6798   18.2011  -34.3118 C   0  0  0  0  0  0  0  0  0  0  0  0
  -15.1615   18.1355  -33.1183 N   0  0  0  0  0  0  0  0  0  0  0  0
  -15.1593   17.1831  -32.3738 C   0  0  0  0  0  0  0  0  0  0  0  0
  -16.0773   15.9320  -33.4267 S   0  0  0  0  0  0  0  0  0  0  0  0
  -11.6971   20.3152  -44.8896 C   0  0  0  0  0  0  0  0  0  0  0  0
  -10.3534   19.7150  -44.6456 C   0  0  0  0  0  0  0  0  0  0  0  0
  -11.6747   21.2489  -46.0969 C   0  0  0  0  0  0  0  0  0  0  0  0
  -19.2143   20.6563  -46.2205 C   0  0  0  0  0  0  0  0  0  0  0  0
  -20.6607   21.6981  -45.8142 S   0  0  0  0  0  0  0  0  0  0  0  0
  1  2  1  0
  2  3  1  0
  2  4  1  0
  4  5  2  0
  5  6  1  0
  6  7  1  0
  7  8  1  0
  8  9  1  0
  8 10  1  0
 10 11  2  0
 10 12  1  0
 13 12  1  1
 13 14  1  0
 14 15  2  0
 14 16  1  0
 16 17  1  0
 17 18  1  1
 18 19  1  0
 19 20  2  0
 20 21  1  0
 21 22  2  0
 22 23  1  0
 23 24  2  0
 17 25  1  0
 25 26  1  0
 26 27  1  6
 26 28  1  0
 28 29  1  6
 29 30  1  0
 30 31  2  0
 31 32  1  0
 32 33  2  0
 33 34  1  0
 34 35  2  0
 28 36  1  0
 36 37  1  0
 37 38  2  0
 37 39  1  0
 39 40  1  0
 40 41  1  0
 41 42  2  0
 42 43  1  0
 43 44  2  0
 44 45  1  0
 13 46  1  0
 46 47  1  0
 46 48  1  0
  6 49  2  0
 49 50  1  0
 50  4  1  0
 24 19  1  0
 35 30  1  0
 45 41  1  0
M  END
$$$$
