
     RDKit          3D

 32 35  0  0  0  0  0  0  0  0999 V2000
  -31.7966   24.1747  -30.5882 C   0  0  0  0  0  0  0  0  0  0  0  0
  -30.8776   23.2686  -30.3082 C   0  0  0  0  0  0  0  0  0  0  0  0
  -30.6943   22.7242  -28.9735 C   0  0  0  0  0  0  0  0  0  0  0  0
  -30.9094   23.5326  -28.0090 O   0  0  0  0  0  0  0  0  0  0  0  0
  -30.3080   21.4067  -28.7061 N   0  0  0  0  0  0  0  0  0  0  0  0
  -29.9726   20.4241  -29.7263 C   0  0  0  0  0  0  0  0  0  0  0  0
  -28.6707   19.7481  -29.3192 C   0  0  0  0  0  0  0  0  0  0  0  0
  -27.9474   20.6254  -28.2945 C   0  0  0  0  0  0  0  0  0  0  0  0
  -26.5517   20.1292  -28.1689 C   0  0  0  0  0  0  0  0  0  0  0  0
  -26.4006   18.7463  -27.8398 N   0  0  0  0  0  0  0  0  0  0  0  0
  -26.9628   18.0725  -26.7599 C   0  0  0  0  0  0  0  0  0  0  0  0
  -27.3620   18.6488  -25.6034 N   0  0  0  0  0  0  0  0  0  0  0  0
  -27.9255   17.9835  -24.5838 C   0  0  0  0  0  0  0  0  0  0  0  0
  -28.1222   16.6585  -24.6808 N   0  0  0  0  0  0  0  0  0  0  0  0
  -27.7382   16.0229  -25.8272 C   0  0  0  0  0  0  0  0  0  0  0  0
  -27.9285   14.6192  -25.9738 N   0  0  0  0  0  0  0  0  0  0  0  0
  -27.1586   16.6882  -26.8840 C   0  0  0  0  0  0  0  0  0  0  0  0
  -26.7679   15.9863  -28.0905 C   0  0  0  0  0  0  0  0  0  0  0  0
  -27.2334   16.3494  -29.3369 C   0  0  0  0  0  0  0  0  0  0  0  0
  -26.8888   15.7055  -30.4924 C   0  0  0  0  0  0  0  0  0  0  0  0
  -26.0303   14.6303  -30.4427 C   0  0  0  0  0  0  0  0  0  0  0  0
  -25.7119   14.0118  -31.6349 O   0  0  0  0  0  0  0  0  0  0  0  0
  -24.3852   14.0642  -32.0702 C   0  0  0  0  0  0  0  0  0  0  0  0
  -23.8943   13.0033  -32.8178 C   0  0  0  0  0  0  0  0  0  0  0  0
  -22.5926   13.0123  -33.2687 C   0  0  0  0  0  0  0  0  0  0  0  0
  -21.7664   14.0978  -32.9681 C   0  0  0  0  0  0  0  0  0  0  0  0
  -22.2375   15.1626  -32.2250 C   0  0  0  0  0  0  0  0  0  0  0  0
  -23.5427   15.1092  -31.7974 C   0  0  0  0  0  0  0  0  0  0  0  0
  -25.5434   14.2372  -29.2163 C   0  0  0  0  0  0  0  0  0  0  0  0
  -25.9083   14.9062  -28.0616 C   0  0  0  0  0  0  0  0  0  0  0  0
  -28.7465   20.6524  -27.0350 C   0  0  0  0  0  0  0  0  0  0  0  0
  -30.2241   20.9532  -27.3326 C   0  0  0  0  0  0  0  0  0  0  0  0
  1  2  2  0
  2  3  1  0
  3  4  2  0
  3  5  1  0
  5  6  1  0
  6  7  1  0
  7  8  1  0
  8  9  1  0
  9 10  1  0
 10 11  1  0
 11 12  2  0
 12 13  1  0
 13 14  2  0
 14 15  1  0
 15 16  1  0
 15 17  2  0
 17 18  1  0
 18 19  2  0
 19 20  1  0
 20 21  2  0
 21 22  1  0
 22 23  1  0
 23 24  2  0
 24 25  1  0
 25 26  2  0
 26 27  1  0
 27 28  2  0
 21 29  1  0
 29 30  2  0
  8 31  1  0
 31 32  1  0
 32  5  1  0
 17 11  1  0
 30 18  1  0
 28 23  1  0
M  END
$$$$
