
     RDKit          3D

 26 29  0  0  0  0  0  0  0  0999 V2000
  -14.2016   44.0712  -18.5087 C   0  0  0  0  0  0  0  0  0  0  0  0
  -15.3612   44.5577  -19.7517 S   0  0  0  0  0  6  0  0  0  0  0  0
  -14.6175   45.2612  -20.8644 O   0  0  0  0  0  0  0  0  0  0  0  0
  -16.3540   45.5305  -19.1891 O   0  0  0  0  0  0  0  0  0  0  0  0
  -16.2334   43.1739  -20.3748 C   0  0  0  0  0  0  0  0  0  0  0  0
  -15.6634   42.3240  -21.2972 C   0  0  0  0  0  0  0  0  0  0  0  0
  -16.3790   41.2355  -21.7737 C   0  0  0  0  0  0  0  0  0  0  0  0
  -17.6642   40.9622  -21.3542 C   0  0  0  0  0  0  0  0  0  0  0  0
  -18.3319   39.7999  -21.9098 C   0  0  0  0  0  0  0  0  0  0  0  0
  -19.4910   39.9004  -22.6542 C   0  0  0  0  0  0  0  0  0  0  0  0
  -20.0918   38.8134  -23.1606 N   0  0  0  0  0  0  0  0  0  0  0  0
  -19.5872   37.5894  -22.9614 C   0  0  0  0  0  0  0  0  0  0  0  0
  -20.2130   36.4326  -23.4922 N   0  0  0  0  0  0  0  0  0  0  0  0
  -21.3985   36.5389  -24.3180 C   0  0  0  0  0  0  0  0  0  0  0  0
  -21.0675   37.1224  -25.6375 C   0  0  0  0  0  0  0  0  0  0  0  0
  -21.6006   38.2504  -26.2009 C   0  0  0  0  0  0  0  0  0  0  0  0
  -20.9960   38.4117  -27.4342 C   0  0  0  0  0  0  0  0  0  0  0  0
  -20.1156   37.3608  -27.5590 C   0  0  0  0  0  0  0  0  0  0  0  0
  -20.2042   36.6391  -26.4709 O   0  0  0  0  0  0  0  0  0  0  0  0
  -18.4545   37.4366  -22.2397 N   0  0  0  0  0  0  0  0  0  0  0  0
  -17.7347   36.3285  -21.8873 C   0  0  0  0  0  0  0  0  0  0  0  0
  -16.6890   36.7595  -21.1603 N   0  0  0  0  0  0  0  0  0  0  0  0
  -16.7620   38.0755  -21.0690 N   0  0  0  0  0  0  0  0  0  0  0  0
  -17.8391   38.5131  -21.7249 C   0  0  0  0  0  0  0  0  0  0  0  0
  -18.2171   41.8163  -20.4368 C   0  0  0  0  0  0  0  0  0  0  0  0
  -17.5311   42.9061  -19.9449 C   0  0  0  0  0  0  0  0  0  0  0  0
  1  2  1  0
  2  3  2  0
  2  4  2  0
  2  5  1  0
  5  6  2  0
  6  7  1  0
  7  8  2  0
  8  9  1  0
  9 10  2  0
 10 11  1  0
 11 12  2  0
 12 13  1  0
 13 14  1  0
 14 15  1  0
 15 16  2  0
 16 17  1  0
 17 18  2  0
 18 19  1  0
 12 20  1  0
 20 21  1  0
 21 22  2  0
 22 23  1  0
 23 24  2  0
  8 25  1  0
 25 26  2  0
 26  5  1  0
 24  9  1  0
 19 15  1  0
 24 20  1  0
M  END
$$$$
