
     RDKit          3D

 12 13  0  0  0  0  0  0  0  0999 V2000
  -18.4823   40.5741  -23.7975 C   0  0  0  0  0  0  0  0  0  0  0  0
  -18.2734   39.0686  -24.0035 C   0  0  0  0  0  0  0  0  0  0  0  0
  -19.6320   38.4253  -23.8722 C   0  0  0  0  0  0  0  0  0  0  0  0
  -19.5988   36.9342  -23.9614 C   0  0  0  0  0  0  0  0  0  0  0  0
  -18.4158   36.3937  -23.2597 C   0  0  0  0  0  0  0  0  0  0  0  0
  -18.6949   35.2690  -22.3421 C   0  0  0  0  0  0  0  0  0  0  0  0
  -19.6030   34.4065  -22.4516 O   0  0  0  0  0  0  0  0  0  0  0  0
  -17.7487   35.3562  -21.3302 O   0  0  0  0  0  0  0  0  0  0  0  0
  -17.1041   36.6081  -21.3914 C   0  0  0  0  0  0  0  0  0  0  0  0
  -16.0115   36.8966  -20.8259 O   0  0  0  0  0  0  0  0  0  0  0  0
  -17.9700   37.4416  -22.2271 C   0  0  0  0  0  0  0  0  0  0  0  0
  -17.2912   38.5221  -22.9760 C   0  0  0  0  0  0  0  0  0  0  0  0
  1  2  1  0
  2  3  1  0
  3  4  1  0
  4  5  1  0
  5  6  1  0
  6  7  2  0
  6  8  1  0
  8  9  1  0
  9 10  2  0
  9 11  1  0
 11 12  1  0
 12  2  1  0
 11  5  1  0
M  END
$$$$
