
     RDKit          3D

 35 37  0  0  0  0  0  0  0  0999 V2000
  -26.2564   24.7073  -31.2735 C   0  0  0  0  0  0  0  0  0  0  0  0
  -26.3880   23.2769  -31.8164 C   0  0  0  0  0  0  0  0  0  0  0  0
  -25.9652   23.2351  -33.2343 C   0  0  0  0  0  0  0  0  0  0  0  0
  -25.7798   22.3917  -30.8945 N   0  0  0  0  0  0  0  0  0  0  0  0
  -24.4142   22.1952  -30.6363 C   0  0  0  0  0  0  0  0  0  0  0  0
  -23.6205   21.1097  -31.1889 C   0  0  0  0  0  0  0  0  0  0  0  0
  -22.2019   20.9006  -30.9755 C   0  0  0  0  0  0  0  0  0  0  0  0
  -21.4114   20.2731  -32.1037 C   0  0  0  0  0  0  0  0  0  0  0  0
  -21.2415   18.9398  -31.9691 O   0  0  0  0  0  0  0  0  0  0  0  0
  -20.3202   18.4226  -32.8352 C   0  0  0  0  0  0  0  0  0  0  0  0
  -19.2018   17.7749  -32.1426 C   0  0  0  0  0  0  0  0  0  0  0  0
  -18.9769   17.7746  -30.9127 O   0  0  0  0  0  0  0  0  0  0  0  0
  -18.2363   17.0505  -32.9471 N   0  0  0  0  0  0  0  0  0  0  0  0
  -16.6684   16.7458  -32.3010 S   0  0  0  0  0  6  0  0  0  0  0  0
  -16.9059   15.9074  -30.7408 C   0  0  0  0  0  0  0  0  0  0  0  0
  -15.9469   18.0373  -31.9923 O   0  0  0  0  0  0  0  0  0  0  0  0
  -15.8437   15.9174  -33.2437 O   0  0  0  0  0  0  0  0  0  0  0  0
  -26.7304   21.5613  -30.1549 C   0  0  0  0  0  0  0  0  0  0  0  0
  -28.0655   21.8394  -30.0873 C   0  0  0  0  0  0  0  0  0  0  0  0
  -28.8974   21.0501  -29.3902 N   0  0  0  0  0  0  0  0  0  0  0  0
  -28.4526   19.9585  -28.7332 C   0  0  0  0  0  0  0  0  0  0  0  0
  -29.3571   19.1151  -27.9841 C   0  0  0  0  0  0  0  0  0  0  0  0
  -29.6563   17.8573  -28.4306 C   0  0  0  0  0  0  0  0  0  0  0  0
  -30.5333   17.0245  -27.7267 C   0  0  0  0  0  0  0  0  0  0  0  0
  -31.0980   17.4932  -26.5640 C   0  0  0  0  0  0  0  0  0  0  0  0
  -30.8116   18.7637  -26.0895 C   0  0  0  0  0  0  0  0  0  0  0  0
  -29.9284   19.5661  -26.8243 C   0  0  0  0  0  0  0  0  0  0  0  0
  -27.0822   19.6670  -28.7990 C   0  0  0  0  0  0  0  0  0  0  0  0
  -26.5947   18.4938  -28.0901 C   0  0  0  0  0  0  0  0  0  0  0  0
  -26.5754   18.5288  -26.7126 C   0  0  0  0  0  0  0  0  0  0  0  0
  -26.1363   17.4727  -25.9593 C   0  0  0  0  0  0  0  0  0  0  0  0
  -25.7039   16.3481  -26.6289 C   0  0  0  0  0  0  0  0  0  0  0  0
  -25.7090   16.2781  -28.0064 C   0  0  0  0  0  0  0  0  0  0  0  0
  -26.1569   17.3561  -28.7505 C   0  0  0  0  0  0  0  0  0  0  0  0
  -26.2710   20.4697  -29.5016 N   0  0  0  0  0  0  0  0  0  0  0  0
  1  2  1  0
  2  3  1  0
  2  4  1  0
  4  5  1  0
  5  6  1  0
  6  7  1  0
  7  8  1  0
  8  9  1  0
  9 10  1  0
 10 11  1  0
 11 12  2  0
 11 13  1  0
 13 14  1  0
 14 15  1  0
 14 16  2  0
 14 17  2  0
  4 18  1  0
 18 19  2  0
 19 20  1  0
 20 21  2  0
 21 22  1  0
 22 23  2  0
 23 24  1  0
 24 25  2  0
 25 26  1  0
 26 27  2  0
 21 28  1  0
 28 29  1  0
 29 30  2  0
 30 31  1  0
 31 32  2  0
 32 33  1  0
 33 34  2  0
 28 35  2  0
 35 18  1  0
 27 22  1  0
 34 29  1  0
M  END
$$$$
