
     RDKit          3D

 24 25  0  0  0  0  0  0  0  0999 V2000
  -20.0494   32.7549  -21.7201 C   0  0  0  0  0  0  0  0  0  0  0  0
  -18.7590   33.1218  -22.2754 N   0  0  0  0  0  4  0  0  0  0  0  0
  -18.3233   32.0369  -23.1125 C   0  0  0  0  0  0  0  0  0  0  0  0
  -17.7791   33.3964  -21.2765 C   0  0  0  0  0  0  0  0  0  0  0  0
  -17.5454   34.8937  -21.2536 C   0  0  0  0  0  0  0  0  0  0  0  0
  -18.7658   35.3956  -21.9590 C   0  0  0  0  0  0  0  0  0  0  0  0
  -18.6601   36.7050  -22.4326 O   0  0  0  0  0  0  0  0  0  0  0  0
  -19.4725   37.7524  -22.0928 C   0  0  0  0  0  0  0  0  0  0  0  0
  -20.4025   37.5401  -21.2848 O   0  0  0  0  0  0  0  0  0  0  0  0
  -19.2847   39.1081  -22.6454 C   0  0  0  0  0  0  0  0  0  0  0  0
  -20.2634   39.9374  -22.0972 O   0  0  0  0  0  0  0  0  0  0  0  0
  -17.9800   39.6978  -22.2387 C   0  0  0  0  0  0  0  0  0  0  0  0
  -17.1528   40.3483  -23.1265 C   0  0  0  0  0  0  0  0  0  0  0  0
  -15.9285   40.8977  -22.7273 C   0  0  0  0  0  0  0  0  0  0  0  0
  -15.5194   40.7964  -21.4136 C   0  0  0  0  0  0  0  0  0  0  0  0
  -16.3315   40.1513  -20.5151 C   0  0  0  0  0  0  0  0  0  0  0  0
  -17.5287   39.6196  -20.9285 C   0  0  0  0  0  0  0  0  0  0  0  0
  -19.4818   39.1555  -24.1388 C   0  0  0  0  0  0  0  0  0  0  0  0
  -20.8817   38.7071  -24.5172 C   0  0  0  0  0  0  0  0  0  0  0  0
  -20.6699   38.0947  -25.9059 C   0  0  0  0  0  0  0  0  0  0  0  0
  -19.4210   37.2495  -25.6270 C   0  0  0  0  0  0  0  0  0  0  0  0
  -18.5497   38.3012  -24.9252 C   0  0  0  0  0  0  0  0  0  0  0  0
  -18.9409   34.3653  -23.0398 C   0  0  0  0  0  0  0  0  0  0  0  0
  -18.7173   36.8580  -22.8435 Br  0  0  0  0  0 15  0  0  0  0  0  0
  1  2  1  0
  2  3  1  0
  2  4  1  0
  4  5  1  0
  5  6  1  0
  6  7  1  0
  7  8  1  0
  8  9  2  0
  8 10  1  0
 10 11  1  0
 10 12  1  0
 12 13  2  0
 13 14  1  0
 14 15  2  0
 15 16  1  0
 16 17  2  0
 10 18  1  0
 18 19  1  0
 19 20  1  0
 20 21  1  0
 21 22  1  0
  6 23  1  0
 23  2  1  0
 17 12  1  0
 22 18  1  0
M  CHG  2   2   1  24  -1
M  END
$$$$
