
     RDKit          3D

 22 24  0  0  0  0  0  0  0  0999 V2000
  -26.4764   18.2938  -23.9468 C   0  0  0  0  0  0  0  0  0  0  0  0
  -27.1443   17.7800  -25.0823 O   0  0  0  0  0  0  0  0  0  0  0  0
  -27.7316   18.5997  -26.0341 C   0  0  0  0  0  0  0  0  0  0  0  0
  -28.4203   19.7033  -25.5808 C   0  0  0  0  0  0  0  0  0  0  0  0
  -29.0205   20.5463  -26.4949 C   0  0  0  0  0  0  0  0  0  0  0  0
  -29.7022   21.6322  -26.1174 N   0  0  0  0  0  0  0  0  0  0  0  0
  -30.2791   22.4398  -27.0240 C   0  0  0  0  0  0  0  0  0  0  0  0
  -30.1947   22.1899  -28.3437 N   0  0  0  0  0  0  0  0  0  0  0  0
  -29.5125   21.1012  -28.7435 C   0  0  0  0  0  0  0  0  0  0  0  0
  -29.4238   20.8395  -30.1176 N   0  0  0  0  0  0  0  0  0  0  0  0
  -29.9145   21.7546  -31.1081 C   0  0  0  0  0  0  0  0  0  0  0  0
  -30.8231   21.3088  -32.0438 C   0  0  0  0  0  0  0  0  0  0  0  0
  -31.2691   22.2294  -32.9814 C   0  0  0  0  0  0  0  0  0  0  0  0
  -30.8335   23.5307  -32.9892 C   0  0  0  0  0  0  0  0  0  0  0  0
  -29.9241   23.9824  -32.0550 C   0  0  0  0  0  0  0  0  0  0  0  0
  -29.3162   25.7893  -32.0621 Br  0  0  0  0  0  0  0  0  0  0  0  0
  -29.4776   23.0566  -31.1147 C   0  0  0  0  0  0  0  0  0  0  0  0
  -28.9194   20.2679  -27.8432 C   0  0  0  0  0  0  0  0  0  0  0  0
  -28.2194   19.1476  -28.2883 C   0  0  0  0  0  0  0  0  0  0  0  0
  -27.6205   18.3064  -27.3765 C   0  0  0  0  0  0  0  0  0  0  0  0
  -26.9195   17.1848  -27.8192 O   0  0  0  0  0  0  0  0  0  0  0  0
  -27.5977   15.9736  -28.0972 C   0  0  0  0  0  0  0  0  0  0  0  0
  1  2  1  0
  2  3  1  0
  3  4  2  0
  4  5  1  0
  5  6  2  0
  6  7  1  0
  7  8  2  0
  8  9  1  0
  9 10  1  0
 10 11  1  0
 11 12  2  0
 12 13  1  0
 13 14  2  0
 14 15  1  0
 15 16  1  0
 15 17  2  0
  9 18  2  0
 18 19  1  0
 19 20  2  0
 20 21  1  0
 21 22  1  0
 20  3  1  0
 18  5  1  0
 17 11  1  0
M  END
$$$$
