
     RDKit          3D

 38 41  0  0  0  0  0  0  0  0999 V2000
  -10.5789   -3.4024  -41.8252 C   0  0  0  0  0  0  0  0  0  0  0  0
  -11.6924   -2.7245  -42.0668 C   0  0  0  0  0  0  0  0  0  0  0  0
  -12.8500   -2.8450  -41.2107 C   0  0  0  0  0  0  0  0  0  0  0  0
  -14.0090   -2.7116  -41.7278 O   0  0  0  0  0  0  0  0  0  0  0  0
  -12.7450   -3.1012  -39.8469 N   0  0  0  0  0  0  0  0  0  0  0  0
  -13.7756   -2.6118  -38.9153 C   0  0  0  0  0  0  0  0  0  0  0  0
  -13.2992   -2.9939  -37.5033 C   0  0  0  0  0  0  0  0  0  0  0  0
  -13.1321   -4.3828  -37.4835 N   0  0  0  0  0  0  0  0  0  0  0  0
  -13.6036   -5.1708  -36.4338 C   0  0  0  0  0  0  0  0  0  0  0  0
  -14.1038   -4.5365  -35.1971 C   0  0  0  0  0  0  0  0  0  0  0  0
  -13.1268   -3.6279  -34.4889 C   0  0  0  0  0  0  0  0  0  0  0  0
  -13.8501   -2.9717  -33.3795 N   0  0  0  0  0  0  0  0  0  0  0  0
  -14.3997   -1.7611  -33.5153 C   0  0  0  0  0  0  0  0  0  0  0  0
  -14.3453   -1.1584  -34.6083 O   0  0  0  0  0  0  0  0  0  0  0  0
  -15.0382   -1.1548  -32.4513 C   0  0  0  0  0  0  0  0  0  0  0  0
  -15.6727    0.1469  -32.5500 C   0  0  0  0  0  0  0  0  0  0  0  0
  -17.0253    0.2803  -32.7637 C   0  0  0  0  0  0  0  0  0  0  0  0
  -18.0346   -1.1638  -32.9049 Cl  0  0  0  0  0  0  0  0  0  0  0  0
  -17.6594    1.5232  -32.8772 C   0  0  0  0  0  0  0  0  0  0  0  0
  -19.0230    1.5980  -33.0903 O   0  0  0  0  0  0  0  0  0  0  0  0
  -19.8232    2.7277  -32.9759 C   0  0  0  0  0  0  0  0  0  0  0  0
  -16.9164    2.6714  -32.7743 C   0  0  0  0  0  0  0  0  0  0  0  0
  -15.5472    2.5654  -32.5587 C   0  0  0  0  0  0  0  0  0  0  0  0
  -14.7094    3.6453  -32.4417 O   0  0  0  0  0  0  0  0  0  0  0  0
  -15.1691    4.9692  -32.5581 C   0  0  0  0  0  0  0  0  0  0  0  0
  -14.9444    1.3007  -32.4489 C   0  0  0  0  0  0  0  0  0  0  0  0
  -13.1988    1.1772  -32.1723 Cl  0  0  0  0  0  0  0  0  0  0  0  0
  -15.1184   -1.7968  -31.2186 C   0  0  0  0  0  0  0  0  0  0  0  0
  -14.5527   -3.0350  -31.0924 C   0  0  0  0  0  0  0  0  0  0  0  0
  -14.5787   -3.7485  -29.9117 C   0  0  0  0  0  0  0  0  0  0  0  0
  -13.9879   -4.9543  -29.9005 N   0  0  0  0  0  0  0  0  0  0  0  0
  -13.3762   -5.5072  -30.9625 C   0  0  0  0  0  0  0  0  0  0  0  0
  -12.7495   -6.7980  -30.8695 N   0  0  0  0  0  0  0  0  0  0  0  0
  -12.1142   -7.4090  -32.0105 C   0  0  0  0  0  0  0  0  0  0  0  0
  -13.3483   -4.8158  -32.1194 N   0  0  0  0  0  0  0  0  0  0  0  0
  -13.9188   -3.6064  -32.1983 C   0  0  0  0  0  0  0  0  0  0  0  0
  -12.3191   -4.9790  -38.4798 C   0  0  0  0  0  0  0  0  0  0  0  0
  -11.6611   -3.8528  -39.2780 C   0  0  0  0  0  0  0  0  0  0  0  0
  1  2  2  0
  2  3  1  0
  3  4  2  0
  3  5  1  0
  5  6  1  0
  6  7  1  0
  7  8  1  0
  8  9  1  0
  9 10  1  0
 10 11  1  0
 11 12  1  0
 12 13  1  0
 13 14  2  0
 13 15  1  0
 15 16  1  0
 16 17  2  0
 17 18  1  0
 17 19  1  0
 19 20  1  0
 20 21  1  0
 19 22  2  0
 22 23  1  0
 23 24  1  0
 24 25  1  0
 23 26  2  0
 26 27  1  0
 15 28  2  0
 28 29  1  0
 29 30  2  0
 30 31  1  0
 31 32  2  0
 32 33  1  0
 33 34  1  0
 32 35  1  0
 35 36  2  0
  8 37  1  0
 37 38  1  0
 38  5  1  0
 36 12  1  0
 26 16  1  0
 36 29  1  0
M  END
$$$$
