
     RDKit          3D

 22 24  0  0  0  0  0  0  0  0999 V2000
  -27.8699   22.7144  -32.6585 O   0  0  0  0  0  0  0  0  0  0  0  0
  -27.4111   23.2611  -31.6219 C   0  0  0  0  0  0  0  0  0  0  0  0
  -26.6399   22.4531  -30.6708 C   0  0  0  0  0  0  0  0  0  0  0  0
  -27.0324   21.0963  -30.7277 O   0  0  0  0  0  0  0  0  0  0  0  0
  -27.5699   20.5462  -29.5493 C   0  0  0  0  0  0  0  0  0  0  0  0
  -26.8451   20.4451  -28.3840 C   0  0  0  0  0  0  0  0  0  0  0  0
  -27.3469   19.9113  -27.2178 C   0  0  0  0  0  0  0  0  0  0  0  0
  -28.6577   19.4460  -27.2076 C   0  0  0  0  0  0  0  0  0  0  0  0
  -29.1428   18.9181  -26.0414 C   0  0  0  0  0  0  0  0  0  0  0  0
  -30.4596   18.4552  -26.0458 C   0  0  0  0  0  0  0  0  0  0  0  0
  -31.2343   18.5299  -27.1825 C   0  0  0  0  0  0  0  0  0  0  0  0
  -30.6977   19.0674  -28.3209 C   0  0  0  0  0  0  0  0  0  0  0  0
  -29.3848   19.5470  -28.3755 C   0  0  0  0  0  0  0  0  0  0  0  0
  -28.8794   20.0821  -29.5415 C   0  0  0  0  0  0  0  0  0  0  0  0
  -29.9270   20.1948  -31.1168 Br  0  0  0  0  0  0  0  0  0  0  0  0
  -27.6426   24.6521  -31.3812 N   0  0  0  0  0  0  0  0  0  0  0  0
  -28.1794   25.4265  -32.4318 C   0  0  0  0  0  0  0  0  0  0  0  0
  -27.4006   26.1619  -33.3007 C   0  0  0  0  0  0  0  0  0  0  0  0
  -27.9345   26.9102  -34.3173 C   0  0  0  0  0  0  0  0  0  0  0  0
  -29.2887   26.9391  -34.4898 C   0  0  0  0  0  0  0  0  0  0  0  0
  -30.0634   26.2254  -33.6484 N   0  0  0  0  0  0  0  0  0  0  0  0
  -29.5381   25.4791  -32.6351 C   0  0  0  0  0  0  0  0  0  0  0  0
  1  2  2  0
  2  3  1  0
  3  4  1  0
  4  5  1  0
  5  6  2  0
  6  7  1  0
  7  8  2  0
  8  9  1  0
  9 10  2  0
 10 11  1  0
 11 12  2  0
 12 13  1  0
 13 14  2  0
 14 15  1  0
  2 16  1  0
 16 17  1  0
 17 18  2  0
 18 19  1  0
 19 20  2  0
 20 21  1  0
 21 22  2  0
 14  5  1  0
 22 17  1  0
 13  8  1  0
M  END
$$$$
