
     RDKit          3D

 13 13  0  0  0  0  0  0  0  0999 V2000
  -19.4458   30.6364  -21.6616 C   0  0  0  0  0  0  0  0  0  0  0  0
  -19.7800   31.7850  -22.4727 N   0  0  0  0  0  0  0  0  0  0  0  0
  -19.3521   33.0361  -21.9199 C   0  0  0  0  0  0  0  0  0  0  0  0
  -18.1963   33.6490  -22.6598 C   0  0  1  0  0  0  0  0  0  0  0  0
  -18.3996   33.4179  -24.0372 O   0  0  0  0  0  0  0  0  0  0  0  0
  -18.0921   35.1098  -22.3936 C   0  0  0  0  0  0  0  0  0  0  0  0
  -17.1116   35.6042  -21.5587 C   0  0  0  0  0  0  0  0  0  0  0  0
  -17.0125   36.9725  -21.3084 C   0  0  0  0  0  0  0  0  0  0  0  0
  -17.8830   37.8700  -21.8816 C   0  0  0  0  0  0  0  0  0  0  0  0
  -17.7818   39.2508  -21.6275 O   0  0  0  0  0  0  0  0  0  0  0  0
  -18.8643   37.3775  -22.7169 C   0  0  0  0  0  0  0  0  0  0  0  0
  -19.7431   38.2805  -23.2959 O   0  0  0  0  0  0  0  0  0  0  0  0
  -18.9656   36.0067  -22.9692 C   0  0  0  0  0  0  0  0  0  0  0  0
  1  2  1  0
  2  3  1  0
  3  4  1  0
  4  5  1  6
  4  6  1  0
  6  7  2  0
  7  8  1  0
  8  9  2  0
  9 10  1  0
  9 11  1  0
 11 12  1  0
 11 13  2  0
 13  6  1  0
M  END
$$$$
