
     RDKit          3D

 37 40  0  0  0  0  0  0  0  0999 V2000
  -25.9319   17.3940  -35.1797 C   0  0  0  0  0  0  0  0  0  0  0  0
  -26.0464   18.4489  -34.1015 C   0  0  0  0  0  0  0  0  0  0  0  0
  -25.7140   18.0272  -32.8117 N   0  0  0  0  0  0  0  0  0  0  0  0
  -26.7224   17.5717  -31.9333 C   0  0  0  0  0  0  0  0  0  0  0  0
  -28.1307   17.9142  -32.3223 C   0  0  0  0  0  0  0  0  0  0  0  0
  -29.1066   17.4697  -31.4763 O   0  0  0  0  0  0  0  0  0  0  0  0
  -24.7697   18.8318  -32.1382 C   0  0  0  0  0  0  0  0  0  0  0  0
  -23.7765   19.4359  -33.0808 C   0  0  0  0  0  0  0  0  0  0  0  0
  -22.7113   18.3837  -33.3401 C   0  0  0  0  0  0  0  0  0  0  0  0
  -21.4359   18.9835  -33.4594 O   0  0  0  0  0  0  0  0  0  0  0  0
  -20.5425   18.5028  -34.3831 C   0  0  0  0  0  0  0  0  0  0  0  0
  -19.9678   19.3835  -35.2939 C   0  0  0  0  0  0  0  0  0  0  0  0
  -19.0586   18.8768  -36.2331 C   0  0  0  0  0  0  0  0  0  0  0  0
  -18.7540   17.5327  -36.2377 C   0  0  0  0  0  0  0  0  0  0  0  0
  -17.8719   17.0719  -37.1741 C   0  0  0  0  0  0  0  0  0  0  0  0
  -17.2548   18.0098  -38.0636 N   0  0  0  0  0  0  0  0  0  0  0  0
  -16.3334   17.5664  -39.0463 C   0  0  0  0  0  0  0  0  0  0  0  0
  -15.3956   18.2655  -39.7538 C   0  0  0  0  0  0  0  0  0  0  0  0
  -14.7470   17.4229  -40.6234 C   0  0  0  0  0  0  0  0  0  0  0  0
  -13.6743   17.7344  -41.5620 C   0  0  0  0  0  0  0  0  0  0  0  0
  -12.3346   17.7643  -40.8982 C   0  0  0  0  0  0  0  0  0  0  0  0
  -12.0570   16.9243  -40.0079 O   0  0  0  0  0  0  0  0  0  0  0  0
  -11.3395   18.7224  -41.2348 N   0  0  0  0  0  0  0  0  0  0  0  0
   -9.9943   18.6081  -40.8226 C   0  0  0  0  0  0  0  0  0  0  0  0
   -8.9557   18.8592  -41.6781 C   0  0  0  0  0  0  0  0  0  0  0  0
   -7.6244   18.7125  -41.2448 C   0  0  0  0  0  0  0  0  0  0  0  0
   -7.3679   18.3110  -39.9455 C   0  0  0  0  0  0  0  0  0  0  0  0
   -8.4052   18.0602  -39.0928 C   0  0  0  0  0  0  0  0  0  0  0  0
   -8.1703   17.6562  -37.8093 F   0  0  0  0  0  0  0  0  0  0  0  0
   -9.7142   18.2104  -39.5364 C   0  0  0  0  0  0  0  0  0  0  0  0
  -15.3007   16.2069  -40.4329 N   0  0  0  0  0  0  0  0  0  0  0  0
  -16.2469   16.3012  -39.4894 N   0  0  0  0  0  0  0  0  0  0  0  0
  -17.5504   15.7852  -37.2347 N   0  0  0  0  0  0  0  0  0  0  0  0
  -18.1168   14.9213  -36.3414 C   0  0  0  0  0  0  0  0  0  0  0  0
  -18.9830   15.3711  -35.4192 N   0  0  0  0  0  0  0  0  0  0  0  0
  -19.3359   16.6473  -35.3180 C   0  0  0  0  0  0  0  0  0  0  0  0
  -20.2111   17.1662  -34.4210 C   0  0  0  0  0  0  0  0  0  0  0  0
  1  2  1  0
  2  3  1  0
  3  4  1  0
  4  5  1  0
  5  6  1  0
  3  7  1  0
  7  8  1  0
  8  9  1  0
  9 10  1  0
 10 11  1  0
 11 12  2  0
 12 13  1  0
 13 14  2  0
 14 15  1  0
 15 16  1  0
 16 17  1  0
 17 18  2  0
 18 19  1  0
 19 20  1  0
 20 21  1  0
 21 22  2  0
 21 23  1  0
 23 24  1  0
 24 25  2  0
 25 26  1  0
 26 27  2  0
 27 28  1  0
 28 29  1  0
 28 30  2  0
 19 31  2  0
 31 32  1  0
 15 33  2  0
 33 34  1  0
 34 35  2  0
 35 36  1  0
 36 37  2  0
 37 11  1  0
 36 14  1  0
 32 17  1  0
 30 24  1  0
M  END
$$$$
