
     RDKit          3D

 25 26  0  0  0  0  0  0  0  0999 V2000
  -16.3079   42.7345  -18.3787 N   0  0  0  0  0  0  0  0  0  0  0  0
  -15.6965   42.9429  -19.9876 S   0  0  0  0  0  6  0  0  0  0  0  0
  -14.2199   42.8219  -19.9674 O   0  0  0  0  0  0  0  0  0  0  0  0
  -16.0296   44.3534  -20.3897 O   0  0  0  0  0  0  0  0  0  0  0  0
  -16.4423   41.7836  -21.0620 N   0  0  0  0  0  0  0  0  0  0  0  0
  -17.5788   42.4710  -21.6548 C   0  0  0  0  0  0  0  0  0  0  0  0
  -18.8460   41.6791  -21.5296 C   0  0  0  0  0  0  0  0  0  0  0  0
  -18.6422   40.2808  -21.9013 N   0  0  0  0  0  0  0  0  0  0  0  0
  -19.4111   39.7458  -22.9455 C   0  0  0  0  0  0  0  0  0  0  0  0
  -20.0213   40.5181  -23.8920 N   0  0  0  0  0  0  0  0  0  0  0  0
  -20.6170   39.7743  -24.7483 O   0  0  0  0  0  0  0  0  0  0  0  0
  -20.4508   38.5597  -24.4440 N   0  0  0  0  0  0  0  0  0  0  0  0
  -19.6884   38.4630  -23.2981 C   0  0  0  0  0  0  0  0  0  0  0  0
  -19.3001   37.2317  -22.6888 C   0  0  0  0  0  0  0  0  0  0  0  0
  -18.0352   36.8890  -22.6431 N   0  0  0  0  0  0  0  0  0  0  0  0
  -17.0908   37.6907  -22.0110 O   0  0  0  0  0  0  0  0  0  0  0  0
  -20.1969   36.2968  -22.1545 N   0  0  0  0  0  0  0  0  0  0  0  0
  -19.9207   34.8914  -22.1432 C   0  0  0  0  0  0  0  0  0  0  0  0
  -20.8220   33.9508  -22.5845 C   0  0  0  0  0  0  0  0  0  0  0  0
  -20.5042   32.6017  -22.5778 C   0  0  0  0  0  0  0  0  0  0  0  0
  -19.2701   32.1895  -22.1235 C   0  0  0  0  0  0  0  0  0  0  0  0
  -18.9484   30.8791  -22.1095 F   0  0  0  0  0  0  0  0  0  0  0  0
  -18.3434   33.1225  -21.6724 C   0  0  0  0  0  0  0  0  0  0  0  0
  -16.6479   32.5235  -21.0521 Br  0  0  0  0  0  0  0  0  0  0  0  0
  -18.6986   34.4703  -21.6935 C   0  0  0  0  0  0  0  0  0  0  0  0
  1  2  1  0
  2  3  2  0
  2  4  2  0
  2  5  1  0
  5  6  1  0
  6  7  1  0
  7  8  1  0
  8  9  1  0
  9 10  2  0
 10 11  1  0
 11 12  1  0
 12 13  2  0
 13 14  1  0
 14 15  2  0
 15 16  1  0
 14 17  1  0
 17 18  1  0
 18 19  2  0
 19 20  1  0
 20 21  2  0
 21 22  1  0
 21 23  1  0
 23 24  1  0
 23 25  2  0
 13  9  1  0
 25 18  1  0
M  END
$$$$
