
     RDKit          3D

 28 30  0  0  0  0  0  0  0  0999 V2000
  -30.9327   16.0825  -25.6078 Br  0  0  0  0  0  0  0  0  0  0  0  0
  -25.5741   19.4896  -26.1827 C   0  0  0  0  0  0  0  0  0  0  0  0
  -25.9998   18.1125  -26.1029 N   0  0  0  0  0  0  0  0  0  0  0  0
  -24.9662   17.3871  -25.3823 C   0  0  0  0  0  0  0  0  0  0  0  0
  -25.6389   16.3838  -24.4904 C   0  0  0  0  0  0  0  0  0  0  0  0
  -27.1013   16.4831  -24.9611 C   0  0  0  0  0  0  0  0  0  0  0  0
  -27.1857   17.9575  -25.2776 C   0  0  2  0  0  0  0  0  0  0  0  0
  -28.4325   18.3851  -25.9722 C   0  0  0  0  0  0  0  0  0  0  0  0
  -28.7687   17.6628  -27.2022 C   0  0  0  0  0  0  0  0  0  0  0  0
  -28.4752   18.0859  -28.4945 C   0  0  0  0  0  0  0  0  0  0  0  0
  -28.9198   17.1274  -29.3132 N   0  0  0  0  0  0  0  0  0  0  0  0
  -29.4737   16.1298  -28.6262 C   0  0  0  0  0  0  0  0  0  0  0  0
  -30.0763   14.9322  -28.9875 C   0  0  0  0  0  0  0  0  0  0  0  0
  -30.5873   14.0628  -28.0649 C   0  0  0  0  0  0  0  0  0  0  0  0
  -30.5239   14.3446  -26.7182 C   0  0  0  0  0  0  0  0  0  0  0  0
  -31.0402   13.4690  -25.6618 C   0  0  0  0  0  0  0  0  0  0  0  0
  -32.4689   13.6654  -25.2992 C   0  0  0  0  0  0  0  0  0  0  0  0
  -32.8638   15.2944  -24.7229 S   0  0  0  0  0  6  0  0  0  0  0  0
  -32.5116   16.3509  -25.7348 O   0  0  0  0  0  0  0  0  0  0  0  0
  -32.1204   15.5800  -23.4307 O   0  0  0  0  0  0  0  0  0  0  0  0
  -34.5618   15.3150  -24.3525 C   0  0  0  0  0  0  0  0  0  0  0  0
  -35.4849   15.5992  -25.3232 C   0  0  0  0  0  0  0  0  0  0  0  0
  -36.8566   15.6222  -25.0308 C   0  0  0  0  0  0  0  0  0  0  0  0
  -37.2825   15.3571  -23.7573 C   0  0  0  0  0  0  0  0  0  0  0  0
  -36.3615   15.0700  -22.7733 C   0  0  0  0  0  0  0  0  0  0  0  0
  -35.0018   15.0504  -23.0761 C   0  0  0  0  0  0  0  0  0  0  0  0
  -29.9238   15.5369  -26.3511 C   0  0  0  0  0  0  0  0  0  0  0  0
  -29.3958   16.4355  -27.2870 C   0  0  0  0  0  0  0  0  0  0  0  0
  2  3  1  0
  3  4  1  0
  4  5  1  0
  5  6  1  0
  6  7  1  0
  7  8  1  6
  8  9  1  0
  9 10  2  0
 10 11  1  0
 11 12  1  0
 12 13  2  0
 13 14  1  0
 14 15  2  0
 15 16  1  0
 16 17  1  0
 17 18  1  0
 18 19  2  0
 18 20  2  0
 18 21  1  0
 21 22  2  0
 22 23  1  0
 23 24  2  0
 24 25  1  0
 25 26  2  0
 15 27  1  0
 27 28  2  0
  7  3  1  0
 28  9  1  0
 28 12  1  0
 26 21  1  0
M  END
$$$$
