
     RDKit          3D

 21 23  0  0  0  0  0  0  0  0999 V2000
  -20.5607   32.5134  -22.3815 C   0  0  0  0  0  0  0  0  0  0  0  0
  -19.6625   33.6987  -22.2485 C   0  0  0  0  0  0  0  0  0  0  0  0
  -18.6977   33.8031  -21.2945 C   0  0  0  0  0  0  0  0  0  0  0  0
  -17.8623   34.8810  -21.1553 C   0  0  0  0  0  0  0  0  0  0  0  0
  -18.0224   35.9368  -22.0601 C   0  0  0  0  0  0  0  0  0  0  0  0
  -17.2068   37.1043  -21.8926 C   0  0  0  0  0  0  0  0  0  0  0  0
  -15.9327   36.8677  -21.7869 O   0  0  0  0  0  0  0  0  0  0  0  0
  -17.6223   38.4433  -21.8330 N   0  0  0  0  0  0  0  0  0  0  0  0
  -17.5188   39.2604  -22.8956 N   0  0  0  0  0  0  0  0  0  0  0  0
  -18.0343   40.4686  -22.6279 C   0  0  0  0  0  0  0  0  0  0  0  0
  -18.1059   41.6160  -23.5214 C   0  0  0  0  0  0  0  0  0  0  0  0
  -18.4095   42.8762  -23.0594 C   0  0  0  0  0  0  0  0  0  0  0  0
  -18.4713   43.9633  -23.9444 C   0  0  0  0  0  0  0  0  0  0  0  0
  -18.2241   43.7493  -25.2779 C   0  0  0  0  0  0  0  0  0  0  0  0
  -17.9302   42.5134  -25.7063 N   0  0  0  0  0  0  0  0  0  0  0  0
  -17.8681   41.4613  -24.8645 C   0  0  0  0  0  0  0  0  0  0  0  0
  -18.4645   40.3771  -21.3596 N   0  0  0  0  0  0  0  0  0  0  0  0
  -18.2161   39.1288  -20.8580 C   0  0  0  0  0  0  0  0  0  0  0  0
  -18.5970   38.7061  -19.5507 N   0  0  0  0  0  0  0  0  0  0  0  0
  -18.9992   35.8381  -23.0279 C   0  0  0  0  0  0  0  0  0  0  0  0
  -19.8367   34.7234  -23.1451 C   0  0  0  0  0  0  0  0  0  0  0  0
  1  2  1  0
  2  3  2  0
  3  4  1  0
  4  5  2  0
  5  6  1  0
  6  7  2  0
  6  8  1  0
  8  9  1  0
  9 10  2  0
 10 11  1  0
 11 12  2  0
 12 13  1  0
 13 14  2  0
 14 15  1  0
 15 16  2  0
 10 17  1  0
 17 18  2  0
 18 19  1  0
  5 20  1  0
 20 21  2  0
 21  2  1  0
 18  8  1  0
 16 11  1  0
M  END
$$$$
