
     RDKit          3D

 18 19  0  0  0  0  0  0  0  0999 V2000
  -20.5282   15.7745  -36.4797 C   0  0  0  0  0  0  0  0  0  0  0  0
  -21.0995   16.6508  -37.5353 C   0  0  0  0  0  0  0  0  0  0  0  0
  -22.1869   16.2708  -38.2888 C   0  0  0  0  0  0  0  0  0  0  0  0
  -22.7278   17.0834  -39.2778 C   0  0  0  0  0  0  0  0  0  0  0  0
  -22.1285   18.3195  -39.4927 C   0  0  0  0  0  0  0  0  0  0  0  0
  -21.0433   18.7297  -38.7604 C   0  0  0  0  0  0  0  0  0  0  0  0
  -20.4802   20.0264  -39.0018 N   0  0  0  0  0  0  0  0  0  0  0  0
  -21.3376   21.1002  -39.3297 C   0  0  0  0  0  0  0  0  0  0  0  0
  -22.3415   21.4050  -38.3938 C   0  0  0  0  0  0  0  0  0  0  0  0
  -23.2228   22.4257  -38.6708 C   0  0  0  0  0  0  0  0  0  0  0  0
  -23.1131   23.1323  -39.8505 C   0  0  0  0  0  0  0  0  0  0  0  0
  -22.1276   22.8268  -40.7584 C   0  0  0  0  0  0  0  0  0  0  0  0
  -21.2142   21.7810  -40.4901 C   0  0  0  0  0  0  0  0  0  0  0  0
  -20.2055   21.4981  -41.4769 C   0  0  0  0  0  0  0  0  0  0  0  0
  -18.9818   21.5517  -41.3209 O   0  0  0  0  0  0  0  0  0  0  0  0
  -20.6017   21.1109  -42.7883 O   0  0  0  0  0  0  0  0  0  0  0  0
  -20.5336   17.9036  -37.7902 C   0  0  0  0  0  0  0  0  0  0  0  0
  -19.3935   18.3229  -36.9723 C   0  0  0  0  0  0  0  0  0  0  0  0
  1  2  1  0
  2  3  2  0
  3  4  1  0
  4  5  2  0
  5  6  1  0
  6  7  1  0
  7  8  1  0
  8  9  2  0
  9 10  1  0
 10 11  2  0
 11 12  1  0
 12 13  2  0
 13 14  1  0
 14 15  2  0
 14 16  1  0
  6 17  2  0
 17 18  1  0
 17  2  1  0
 13  8  1  0
M  END
$$$$
