
     RDKit          3D

 21 23  0  0  0  0  0  0  0  0999 V2000
  -13.2458   12.4869  -27.6336 C   0  0  0  0  0  0  0  0  0  0  0  0
  -13.9978   13.2608  -28.6700 C   0  0  0  0  0  0  0  0  0  0  0  0
  -14.6682   14.4201  -28.3526 C   0  0  0  0  0  0  0  0  0  0  0  0
  -15.3687   15.1410  -29.3184 C   0  0  0  0  0  0  0  0  0  0  0  0
  -15.3894   14.6818  -30.6176 C   0  0  0  0  0  0  0  0  0  0  0  0
  -16.2916   15.6198  -31.8364 S   0  0  0  0  0  0  0  0  0  0  0  0
  -17.9986   15.0676  -31.8932 C   0  0  0  0  0  0  0  0  0  0  0  0
  -18.5025   14.2981  -30.8648 C   0  0  0  0  0  0  0  0  0  0  0  0
  -19.8127   13.8832  -30.9239 C   0  0  0  0  0  0  0  0  0  0  0  0
  -20.5996   14.2356  -31.9961 C   0  0  0  0  0  0  0  0  0  0  0  0
  -20.0725   15.0055  -33.0113 C   0  0  0  0  0  0  0  0  0  0  0  0
  -18.7450   15.4479  -32.9893 C   0  0  0  0  0  0  0  0  0  0  0  0
  -18.2298   16.2328  -34.0377 N   0  0  0  0  0  0  0  0  0  0  0  0
  -17.2061   15.7954  -34.9614 C   0  0  0  0  0  0  0  0  0  0  0  0
  -16.5034   16.9500  -35.6129 C   0  0  0  0  0  0  0  0  0  0  0  0
  -17.3649   17.9232  -36.1887 N   0  0  0  0  0  0  0  0  0  0  0  0
  -18.6885   17.9660  -35.6543 C   0  0  0  0  0  0  0  0  0  0  0  0
  -18.7504   17.5767  -34.2189 C   0  0  0  0  0  0  0  0  0  0  0  0
  -14.7302   13.5299  -30.9611 C   0  0  0  0  0  0  0  0  0  0  0  0
  -14.7555   13.0391  -32.3629 C   0  0  0  0  0  0  0  0  0  0  0  0
  -14.0454   12.8355  -29.9901 C   0  0  0  0  0  0  0  0  0  0  0  0
  1  2  1  0
  2  3  2  0
  3  4  1  0
  4  5  2  0
  5  6  1  0
  6  7  1  0
  7  8  2  0
  8  9  1  0
  9 10  2  0
 10 11  1  0
 11 12  2  0
 12 13  1  0
 13 14  1  0
 14 15  1  0
 15 16  1  0
 16 17  1  0
 17 18  1  0
  5 19  1  0
 19 20  1  0
 19 21  2  0
 21  2  1  0
 12  7  1  0
 18 13  1  0
M  END
$$$$
