
     RDKit          3D

 20 23  0  0  0  0  0  0  0  0999 V2000
  -21.4668   37.8453  -27.0798 C   0  0  0  0  0  0  0  0  0  0  0  0
  -20.7378   38.7934  -26.2123 C   0  0  0  0  0  0  0  0  0  0  0  0
  -20.7227   40.1628  -26.4721 C   0  0  0  0  0  0  0  0  0  0  0  0
  -20.0308   41.0043  -25.6374 C   0  0  0  0  0  0  0  0  0  0  0  0
  -19.3902   40.4864  -24.5978 N   0  0  0  0  0  0  0  0  0  0  0  0
  -19.3540   39.2013  -24.2806 C   0  0  0  0  0  0  0  0  0  0  0  0
  -20.0456   38.3347  -25.1096 C   0  0  0  0  0  0  0  0  0  0  0  0
  -20.1588   36.9355  -24.9851 N   0  0  0  0  0  0  0  0  0  0  0  0
  -19.3758   36.0822  -24.1650 C   0  0  0  0  0  0  0  0  0  0  0  0
  -19.4534   34.8735  -24.4819 O   0  0  0  0  0  0  0  0  0  0  0  0
  -18.5359   36.4577  -23.0497 C   0  0  0  0  0  0  0  0  0  0  0  0
  -18.0562   35.3487  -22.4094 C   0  0  0  0  0  0  0  0  0  0  0  0
  -17.2220   35.5252  -21.3011 C   0  0  0  0  0  0  0  0  0  0  0  0
  -16.9116   36.7887  -20.8918 C   0  0  0  0  0  0  0  0  0  0  0  0
  -17.4119   37.8363  -21.5595 N   0  0  0  0  0  0  0  0  0  0  0  0
  -18.2177   37.7140  -22.6302 C   0  0  0  0  0  0  0  0  0  0  0  0
  -18.5785   39.0147  -23.1133 N   0  0  0  0  0  0  0  0  0  0  0  0
  -18.1102   40.1123  -22.3490 C   0  0  0  0  0  0  0  0  0  0  0  0
  -16.7261   40.6021  -22.8379 C   0  0  0  0  0  0  0  0  0  0  0  0
  -17.0407   40.2086  -21.4065 C   0  0  0  0  0  0  0  0  0  0  0  0
  1  2  1  0
  2  3  2  0
  3  4  1  0
  4  5  2  0
  5  6  1  0
  6  7  2  0
  7  8  1  0
  8  9  1  0
  9 10  2  0
  9 11  1  0
 11 12  2  0
 12 13  1  0
 13 14  2  0
 14 15  1  0
 15 16  2  0
 16 17  1  0
 17 18  1  0
 18 19  1  0
 19 20  1  0
  7  2  1  0
 16 11  1  0
 20 18  1  0
 17  6  1  0
M  END
$$$$
