
     RDKit          3D

 20 22  0  0  0  0  0  0  0  0999 V2000
  -26.3672   28.4143  -35.1226 O   0  0  0  0  0  0  0  0  0  0  0  0
  -25.2385   27.8962  -35.2043 C   0  0  0  0  0  0  0  0  0  0  0  0
  -24.2433   28.3877  -34.3743 O   0  0  0  0  0  0  0  0  0  0  0  0
  -24.9774   26.7992  -36.1529 C   0  0  0  0  0  0  0  0  0  0  0  0
  -23.7737   26.5769  -36.7836 C   0  0  0  0  0  0  0  0  0  0  0  0
  -23.9341   25.4611  -37.5860 C   0  0  0  0  0  0  0  0  0  0  0  0
  -23.1032   24.7714  -38.4364 C   0  0  0  0  0  0  0  0  0  0  0  0
  -23.5033   23.6601  -39.1441 C   0  0  0  0  0  0  0  0  0  0  0  0
  -22.6516   22.9728  -40.0005 O   0  0  0  0  0  0  0  0  0  0  0  0
  -21.8870   23.5836  -40.9900 C   0  0  0  0  0  0  0  0  0  0  0  0
  -21.2619   22.5645  -41.8695 C   0  0  0  0  0  0  0  0  0  0  0  0
  -21.8208   22.2222  -43.0824 C   0  0  0  0  0  0  0  0  0  0  0  0
  -21.2511   21.2803  -43.9048 C   0  0  0  0  0  0  0  0  0  0  0  0
  -20.0755   20.6325  -43.5354 C   0  0  0  0  0  0  0  0  0  0  0  0
  -19.5211   20.9787  -42.3217 C   0  0  0  0  0  0  0  0  0  0  0  0
  -20.0828   21.9200  -41.4905 C   0  0  0  0  0  0  0  0  0  0  0  0
  -24.8174   23.2661  -38.9483 C   0  0  0  0  0  0  0  0  0  0  0  0
  -25.6666   23.9307  -38.1103 C   0  0  0  0  0  0  0  0  0  0  0  0
  -25.2365   25.0452  -37.4116 C   0  0  0  0  0  0  0  0  0  0  0  0
  -25.8731   25.8710  -36.5299 N   0  0  0  0  0  0  0  0  0  0  0  0
  1  2  2  0
  2  3  1  0
  2  4  1  0
  4  5  2  0
  5  6  1  0
  6  7  2  0
  7  8  1  0
  8  9  1  0
  9 10  1  0
 10 11  1  0
 11 12  2  0
 12 13  1  0
 13 14  2  0
 14 15  1  0
 15 16  2  0
  8 17  2  0
 17 18  1  0
 18 19  2  0
 19 20  1  0
 20  4  1  0
 19  6  1  0
 16 11  1  0
M  END
$$$$
