
     RDKit          3D

 20 21  0  0  0  0  0  0  0  0999 V2000
  -17.3939   41.8682  -21.0660 N   0  0  0  0  0  0  0  0  0  0  0  0
  -18.3128   40.8214  -20.0805 S   0  0  0  0  0  6  0  0  0  0  0  0
  -17.4759   40.4361  -18.8775 O   0  0  0  0  0  0  0  0  0  0  0  0
  -19.5809   41.5059  -19.6335 O   0  0  0  0  0  0  0  0  0  0  0  0
  -18.7669   39.3898  -20.9771 C   0  0  0  0  0  0  0  0  0  0  0  0
  -17.8440   38.4180  -21.3469 C   0  0  0  0  0  0  0  0  0  0  0  0
  -18.1742   37.3003  -22.0422 C   0  0  0  0  0  0  0  0  0  0  0  0
  -19.4578   37.0769  -22.4173 C   0  0  0  0  0  0  0  0  0  0  0  0
  -20.4321   38.0165  -22.0757 C   0  0  0  0  0  0  0  0  0  0  0  0
  -20.0713   39.1600  -21.3600 C   0  0  0  0  0  0  0  0  0  0  0  0
  -21.3304   40.3151  -20.9520 Cl  0  0  0  0  0  0  0  0  0  0  0  0
  -19.8020   35.9145  -23.1396 N   0  0  0  0  0  0  0  0  0  0  0  0
  -19.0457   34.7112  -23.1697 C   0  0  0  0  0  0  0  0  0  0  0  0
  -19.3407   33.8375  -21.9420 C   0  0  0  0  0  0  0  0  0  0  0  0
  -18.1453   32.5262  -21.9393 Cl  0  0  0  0  0  0  0  0  0  0  0  0
  -20.9794   33.1743  -22.0131 Cl  0  0  0  0  0  0  0  0  0  0  0  0
  -17.6280   34.8914  -23.3514 N   0  0  0  0  0  0  0  0  0  0  0  0
  -16.9420   36.1465  -22.4552 S   0  0  0  0  0  6  0  0  0  0  0  0
  -15.9145   36.8872  -23.3008 O   0  0  0  0  0  0  0  0  0  0  0  0
  -16.1880   35.6728  -21.2300 O   0  0  0  0  0  0  0  0  0  0  0  0
  1  2  1  0
  2  3  2  0
  2  4  2  0
  2  5  1  0
  5  6  2  0
  6  7  1  0
  7  8  2  0
  8  9  1  0
  9 10  2  0
 10 11  1  0
  8 12  1  0
 12 13  1  0
 13 14  1  0
 14 15  1  0
 14 16  1  0
 13 17  1  0
 17 18  1  0
 18 19  2  0
 18 20  2  0
 10  5  1  0
 18  7  1  0
M  END
$$$$
