
     RDKit          3D

 20 20  0  0  0  0  0  0  0  0999 V2000
  -18.9796   41.8591  -24.9990 C   0  0  0  0  0  0  0  0  0  0  0  0
  -19.1171   40.8146  -23.8833 C   0  0  0  0  0  0  0  0  0  0  0  0
  -20.1349   41.3786  -22.9136 C   0  0  0  0  0  0  0  0  0  0  0  0
  -17.8474   40.7339  -23.2446 N   0  0  0  0  0  0  0  0  0  0  0  0
  -17.7278   39.8270  -22.1585 C   0  0  0  0  0  0  0  0  0  0  0  0
  -17.8137   38.3610  -22.5336 C   0  0  0  0  0  0  0  0  0  0  0  0
  -16.7990   38.0107  -23.4317 O   0  0  0  0  0  0  0  0  0  0  0  0
  -17.5726   37.5389  -21.2882 C   0  0  0  0  0  0  0  0  0  0  0  0
  -17.5941   36.1881  -21.4524 O   0  0  0  0  0  0  0  0  0  0  0  0
  -18.4878   35.2587  -21.8335 C   0  0  0  0  0  0  0  0  0  0  0  0
  -19.7795   35.4772  -22.1876 C   0  0  0  0  0  0  0  0  0  0  0  0
  -20.6566   34.4572  -22.5739 C   0  0  0  0  0  0  0  0  0  0  0  0
  -20.1727   33.1678  -22.5912 C   0  0  0  0  0  0  0  0  0  0  0  0
  -18.8635   32.9161  -22.2354 C   0  0  0  0  0  0  0  0  0  0  0  0
  -18.4117   31.6121  -22.2619 C   0  0  0  0  0  0  0  0  0  0  0  0
  -17.1074   31.3310  -21.9095 C   0  0  0  0  0  0  0  0  0  0  0  0
  -16.2627   32.3521  -21.5333 C   0  0  0  0  0  0  0  0  0  0  0  0
  -16.6964   33.6585  -21.5013 C   0  0  0  0  0  0  0  0  0  0  0  0
  -18.0179   33.9288  -21.8599 C   0  0  0  0  0  0  0  0  0  0  0  0
  -18.4612   37.7927  -22.6281 Cl  0  0  0  0  0  0  0  0  0  0  0  0
  1  2  1  0
  2  3  1  0
  2  4  1  0
  4  5  1  0
  5  6  1  0
  6  7  1  0
  6  8  1  0
  8  9  1  0
  9 10  1  0
 10 11  2  0
 11 12  1  0
 12 13  2  0
 13 14  1  0
 14 15  2  0
 15 16  1  0
 16 17  2  0
 17 18  1  0
 18 19  2  0
 19 10  1  0
 19 14  1  0
M  END
$$$$
