
     RDKit          3D

 20 22  0  0  0  0  0  0  0  0999 V2000
  -11.5056   41.0908  -16.6785 C   0  0  0  0  0  0  0  0  0  0  0  0
  -12.1661   41.5392  -17.6948 C   0  0  0  0  0  0  0  0  0  0  0  0
  -12.1820   42.8963  -18.1922 C   0  0  0  0  0  0  0  0  0  0  0  0
  -11.1969   43.7928  -17.8140 C   0  0  0  0  0  0  0  0  0  0  0  0
  -11.2148   45.0723  -18.2850 C   0  0  0  0  0  0  0  0  0  0  0  0
  -10.2155   45.9643  -17.8951 O   0  0  0  0  0  0  0  0  0  0  0  0
  -12.1878   45.5326  -19.1407 C   0  0  0  0  0  0  0  0  0  0  0  0
  -13.1678   44.6436  -19.5180 C   0  0  0  0  0  0  0  0  0  0  0  0
  -14.2490   44.7325  -20.3174 N   0  0  0  0  0  0  0  0  0  0  0  0
  -14.8949   43.5564  -20.3547 C   0  0  0  0  0  0  0  0  0  0  0  0
  -16.1193   43.2237  -21.1048 C   0  0  0  0  0  0  0  0  0  0  0  0
  -16.5901   44.0505  -22.0941 C   0  0  0  0  0  0  0  0  0  0  0  0
  -17.7269   43.7504  -22.7971 C   0  0  0  0  0  0  0  0  0  0  0  0
  -18.4100   42.5866  -22.4973 C   0  0  0  0  0  0  0  0  0  0  0  0
  -19.5660   42.3030  -23.2279 O   0  0  0  0  0  0  0  0  0  0  0  0
  -17.9505   41.7463  -21.5072 C   0  0  0  0  0  0  0  0  0  0  0  0
  -18.6187   40.6049  -21.2119 F   0  0  0  0  0  0  0  0  0  0  0  0
  -16.8102   42.0730  -20.8210 C   0  0  0  0  0  0  0  0  0  0  0  0
  -14.2327   42.7312  -19.5890 O   0  0  0  0  0  0  0  0  0  0  0  0
  -13.1720   43.3335  -19.0516 C   0  0  0  0  0  0  0  0  0  0  0  0
  1  2  2  0
  2  3  1  0
  3  4  2  0
  4  5  1  0
  5  6  1  0
  5  7  2  0
  7  8  1  0
  8  9  1  0
  9 10  2  0
 10 11  1  0
 11 12  2  0
 12 13  1  0
 13 14  2  0
 14 15  1  0
 14 16  1  0
 16 17  1  0
 16 18  2  0
 10 19  1  0
 19 20  1  0
 20  3  1  0
 20  8  2  0
 18 11  1  0
M  END
$$$$
