
     RDKit          3D

 37 41  0  0  0  0  0  0  0  0999 V2000
  -30.3483   21.7786  -27.4306 C   0  0  0  0  0  0  0  0  0  0  0  0
  -29.9718   20.7454  -28.3204 O   0  0  0  0  0  0  0  0  0  0  0  0
  -28.6894   20.6247  -28.8192 C   0  0  0  0  0  0  0  0  0  0  0  0
  -28.1797   21.6102  -29.6775 C   0  0  0  0  0  0  0  0  0  0  0  0
  -26.9126   21.5453  -30.2048 C   0  0  0  0  0  0  0  0  0  0  0  0
  -26.4033   22.5029  -31.0448 C   0  0  0  0  0  0  0  0  0  0  0  0
  -27.1787   23.6259  -31.4156 N   0  0  0  0  0  0  0  0  0  0  0  0
  -27.4998   23.8507  -32.8216 C   0  0  0  0  0  0  0  0  0  0  0  0
  -28.6796   24.7937  -32.9149 C   0  0  0  0  0  0  0  0  0  0  0  0
  -28.1529   26.2061  -32.7806 C   0  0  0  0  0  0  0  0  0  0  0  0
  -27.3516   26.6021  -33.8877 N   0  0  0  0  0  0  0  0  0  0  0  0
  -27.8640   27.6356  -34.7144 C   0  0  0  0  0  0  0  0  0  0  0  0
  -26.9692   28.0238  -35.8541 C   0  0  0  0  0  0  0  0  0  0  0  0
  -28.2622   28.8808  -33.9463 C   0  0  0  0  0  0  0  0  0  0  0  0
  -26.8067   25.4832  -34.5891 C   0  0  0  0  0  0  0  0  0  0  0  0
  -26.3447   24.4498  -33.5561 C   0  0  0  0  0  0  0  0  0  0  0  0
  -25.1245   22.3738  -31.5362 N   0  0  0  0  0  0  0  0  0  0  0  0
  -24.3355   21.3359  -31.2273 C   0  0  0  0  0  0  0  0  0  0  0  0
  -22.9539   21.1998  -31.7668 C   0  0  0  0  0  0  0  0  0  0  0  0
  -22.5389   19.7471  -31.8605 C   0  0  0  0  0  0  0  0  0  0  0  0
  -21.4563   19.5039  -32.8778 C   0  0  0  0  0  0  0  0  0  0  0  0
  -20.6788   20.7868  -33.1079 C   0  0  0  0  0  0  0  0  0  0  0  0
  -21.5408   21.8512  -33.7417 C   0  0  0  0  0  0  0  0  0  0  0  0
  -22.8972   21.8253  -33.1213 C   0  0  0  0  0  0  0  0  0  0  0  0
  -24.8535   20.4123  -30.4050 N   0  0  0  0  0  0  0  0  0  0  0  0
  -26.0811   20.4620  -29.8860 C   0  0  0  0  0  0  0  0  0  0  0  0
  -26.5765   19.4928  -29.0447 C   0  0  0  0  0  0  0  0  0  0  0  0
  -27.8557   19.5757  -28.5234 C   0  0  0  0  0  0  0  0  0  0  0  0
  -28.3137   18.5708  -27.6765 O   0  0  0  0  0  0  0  0  0  0  0  0
  -27.6239   17.3596  -27.6134 C   0  0  0  0  0  0  0  0  0  0  0  0
  -28.5630   16.3051  -27.0483 C   0  0  0  0  0  0  0  0  0  0  0  0
  -27.7833   15.0221  -26.9067 C   0  0  0  0  0  0  0  0  0  0  0  0
  -28.5295   13.9258  -26.3899 N   0  0  0  0  0  0  0  0  0  0  0  0
  -29.3098   14.2860  -25.2465 C   0  0  0  0  0  0  0  0  0  0  0  0
  -30.7256   13.8738  -25.5224 C   0  0  0  0  0  0  0  0  0  0  0  0
  -30.7357   13.1090  -26.8062 C   0  0  0  0  0  0  0  0  0  0  0  0
  -29.3456   13.2505  -27.3441 C   0  0  0  0  0  0  0  0  0  0  0  0
  1  2  1  0
  2  3  1  0
  3  4  2  0
  4  5  1  0
  5  6  2  0
  6  7  1  0
  7  8  1  0
  8  9  1  0
  9 10  1  0
 10 11  1  0
 11 12  1  0
 12 13  1  0
 12 14  1  0
 11 15  1  0
 15 16  1  0
  6 17  1  0
 17 18  2  0
 18 19  1  0
 19 20  1  0
 20 21  1  0
 21 22  1  0
 22 23  1  0
 23 24  1  0
 18 25  1  0
 25 26  2  0
 26 27  1  0
 27 28  2  0
 28 29  1  0
 29 30  1  0
 30 31  1  0
 31 32  1  0
 32 33  1  0
 33 34  1  0
 34 35  1  0
 35 36  1  0
 36 37  1  0
 28  3  1  0
 37 33  1  0
 26  5  1  0
 16  8  1  0
 24 19  1  0
M  END
$$$$
