
     RDKit          3D

 18 19  0  0  0  0  0  0  0  0999 V2000
  -19.9108   37.5125  -20.9023 O   0  0  0  0  0  0  0  0  0  0  0  0
  -18.9802   37.5680  -21.7978 C   0  0  0  0  0  0  0  0  0  0  0  0
  -18.5931   36.3563  -22.4432 C   0  0  0  0  0  0  0  0  0  0  0  0
  -17.6431   36.3909  -23.2908 O   0  0  0  0  0  0  0  0  0  0  0  0
  -19.1771   35.0341  -22.2405 C   0  0  0  0  0  0  0  0  0  0  0  0
  -20.4951   34.7309  -22.4244 C   0  0  0  0  0  0  0  0  0  0  0  0
  -21.0056   33.4323  -22.2131 C   0  0  0  0  0  0  0  0  0  0  0  0
  -20.1749   32.4282  -21.8111 C   0  0  0  0  0  0  0  0  0  0  0  0
  -20.9072   30.6940  -21.5387 Br  0  0  0  0  0  0  0  0  0  0  0  0
  -18.8378   32.7008  -21.6162 C   0  0  0  0  0  0  0  0  0  0  0  0
  -18.3616   33.9706  -21.8273 C   0  0  0  0  0  0  0  0  0  0  0  0
  -18.3973   38.8649  -22.0797 C   0  0  0  0  0  0  0  0  0  0  0  0
  -17.1920   39.2619  -21.6350 C   0  0  0  0  0  0  0  0  0  0  0  0
  -16.6607   40.5233  -21.9276 C   0  0  0  0  0  0  0  0  0  0  0  0
  -17.4039   41.3800  -22.6973 C   0  0  0  0  0  0  0  0  0  0  0  0
  -16.7152   43.1097  -23.1191 Br  0  0  0  0  0  0  0  0  0  0  0  0
  -18.6361   40.9770  -23.1532 C   0  0  0  0  0  0  0  0  0  0  0  0
  -19.1361   39.7606  -22.8646 C   0  0  0  0  0  0  0  0  0  0  0  0
  1  2  2  0
  2  3  1  0
  3  4  2  0
  3  5  1  0
  5  6  2  0
  6  7  1  0
  7  8  2  0
  8  9  1  0
  8 10  1  0
 10 11  2  0
  2 12  1  0
 12 13  2  0
 13 14  1  0
 14 15  2  0
 15 16  1  0
 15 17  1  0
 17 18  2  0
 11  5  1  0
 18 12  1  0
M  END
$$$$
