
     RDKit          3D

 22 23  0  0  0  0  0  0  0  0999 V2000
  -23.6022   25.1546  -33.1366 C   0  0  0  0  0  0  0  0  0  0  0  0
  -24.7476   25.3646  -34.0564 C   0  0  2  0  0  0  0  0  0  0  0  0
  -26.0402   25.2663  -33.4017 N   0  0  0  0  0  0  0  0  0  0  0  0
  -26.2972   24.5193  -32.2624 C   0  0  0  0  0  0  0  0  0  0  0  0
  -25.3080   23.9431  -31.7058 O   0  0  0  0  0  0  0  0  0  0  0  0
  -27.5933   24.3394  -31.6529 C   0  0  0  0  0  0  0  0  0  0  0  0
  -27.6280   23.5543  -30.4388 N   0  0  0  0  0  0  0  0  0  0  0  0
  -27.8739   22.1371  -30.4821 C   0  0  0  0  0  0  0  0  0  0  0  0
  -28.0452   21.6620  -31.6388 O   0  0  0  0  0  0  0  0  0  0  0  0
  -27.9238   21.3060  -29.2954 C   0  0  0  0  0  0  0  0  0  0  0  0
  -28.1663   19.9596  -29.4609 C   0  0  0  0  0  0  0  0  0  0  0  0
  -28.2323   19.0871  -28.3909 C   0  0  0  0  0  0  0  0  0  0  0  0
  -28.0517   19.5637  -27.1075 C   0  0  0  0  0  0  0  0  0  0  0  0
  -27.8082   20.9023  -26.9111 C   0  0  0  0  0  0  0  0  0  0  0  0
  -27.5794   21.5055  -25.2842 Cl  0  0  0  0  0  0  0  0  0  0  0  0
  -27.7481   21.7558  -28.0158 C   0  0  0  0  0  0  0  0  0  0  0  0
  -24.7442   24.4130  -35.1935 C   0  0  0  0  0  0  0  0  0  0  0  0
  -24.7480   23.0560  -34.9681 C   0  0  0  0  0  0  0  0  0  0  0  0
  -24.7450   22.1388  -36.0194 C   0  0  0  0  0  0  0  0  0  0  0  0
  -24.7380   22.5858  -37.3309 C   0  0  0  0  0  0  0  0  0  0  0  0
  -24.7342   23.9421  -37.5502 C   0  0  0  0  0  0  0  0  0  0  0  0
  -24.7373   24.8422  -36.5054 C   0  0  0  0  0  0  0  0  0  0  0  0
  2  1  1  1
  2  3  1  0
  3  4  1  0
  4  5  2  0
  4  6  1  0
  6  7  1  0
  7  8  1  0
  8  9  2  0
  8 10  1  0
 10 11  2  0
 11 12  1  0
 12 13  2  0
 13 14  1  0
 14 15  1  0
 14 16  2  0
  2 17  1  0
 17 18  2  0
 18 19  1  0
 19 20  2  0
 20 21  1  0
 21 22  2  0
 16 10  1  0
 22 17  1  0
M  END
$$$$
