
     RDKit          3D

 33 35  0  0  0  0  0  0  0  0999 V2000
  -32.1972   17.4763  -30.2304 C   0  0  0  0  0  0  0  0  0  0  0  0
  -31.5616   18.4781  -30.9642 O   0  0  0  0  0  0  0  0  0  0  0  0
  -30.3412   19.0214  -30.6215 C   0  0  0  0  0  0  0  0  0  0  0  0
  -29.6677   18.5877  -29.5018 C   0  0  0  0  0  0  0  0  0  0  0  0
  -28.4330   19.1367  -29.1550 C   0  0  0  0  0  0  0  0  0  0  0  0
  -27.8028   18.6940  -28.0269 N   0  0  0  0  0  0  0  0  0  0  0  0
  -26.6310   19.2012  -27.6494 C   0  0  0  0  0  0  0  0  0  0  0  0
  -25.9452   18.7430  -26.4492 C   0  0  0  0  0  0  0  0  0  0  0  0
  -24.7321   19.2785  -26.0748 C   0  0  0  0  0  0  0  0  0  0  0  0
  -24.0706   18.8531  -24.9379 C   0  0  0  0  0  0  0  0  0  0  0  0
  -22.8868   19.3740  -24.5711 F   0  0  0  0  0  0  0  0  0  0  0  0
  -24.6322   17.8653  -24.1492 C   0  0  0  0  0  0  0  0  0  0  0  0
  -25.8448   17.3064  -24.4927 C   0  0  0  0  0  0  0  0  0  0  0  0
  -26.4648   17.7619  -25.6322 C   0  0  0  0  0  0  0  0  0  0  0  0
  -27.6865   17.2195  -26.0052 O   0  0  0  0  0  0  0  0  0  0  0  0
  -26.0797   20.1479  -28.3892 N   0  0  0  0  0  0  0  0  0  0  0  0
  -26.6261   20.6675  -29.5450 C   0  0  0  0  0  0  0  0  0  0  0  0
  -25.9226   21.6654  -30.1983 N   0  0  0  0  0  0  0  0  0  0  0  0
  -25.9652   22.4226  -31.3813 C   0  0  2  0  0  0  0  0  0  0  0  0
  -25.7247   21.6887  -32.6614 C   0  0  0  0  0  0  0  0  0  0  0  0
  -24.3043   21.7289  -32.9555 N   0  0  0  0  0  0  0  0  0  0  0  0
  -23.7165   22.6780  -32.0686 C   0  0  0  0  0  0  0  0  0  0  0  0
  -24.8022   23.4500  -31.4340 C   0  0  1  0  0  0  0  0  0  0  0  0
  -25.1966   24.7277  -32.0639 C   0  0  0  0  0  0  0  0  0  0  0  0
  -26.3351   25.3985  -31.3099 C   0  0  0  0  0  0  0  0  0  0  0  0
  -25.5777   24.6813  -33.5009 C   0  0  0  0  0  0  0  0  0  0  0  0
  -24.1048   25.6072  -31.9486 O   0  0  0  0  0  0  0  0  0  0  0  0
  -27.8318   20.1257  -29.9035 C   0  0  0  0  0  0  0  0  0  0  0  0
  -28.5121   20.5554  -31.0218 C   0  0  0  0  0  0  0  0  0  0  0  0
  -29.7321   20.0091  -31.3596 C   0  0  0  0  0  0  0  0  0  0  0  0
  -30.4126   20.4450  -32.4873 O   0  0  0  0  0  0  0  0  0  0  0  0
  -29.8224   21.4582  -33.2733 C   0  0  0  0  0  0  0  0  0  0  0  0
  -27.0903   20.9684  -29.4510 Cl  0  0  0  0  0  0  0  0  0  0  0  0
  1  2  1  0
  2  3  1  0
  3  4  2  0
  4  5  1  0
  5  6  2  0
  6  7  1  0
  7  8  1  0
  8  9  2  0
  9 10  1  0
 10 11  1  0
 10 12  2  0
 12 13  1  0
 13 14  2  0
 14 15  1  0
  7 16  2  0
 16 17  1  0
 17 18  1  0
 19 18  1  1
 19 20  1  0
 20 21  1  0
 21 22  1  0
 22 23  1  0
 23 24  1  6
 24 25  1  0
 24 26  1  0
 24 27  1  0
 17 28  2  0
 28 29  1  0
 29 30  2  0
 30 31  1  0
 31 32  1  0
 30  3  1  0
 28  5  1  0
 14  8  1  0
 23 19  1  0
M  END
$$$$
