
     RDKit          3D

 23 23  0  0  0  0  0  0  0  0999 V2000
  -32.0083   17.1159  -26.4818 Cl  0  0  0  0  0  0  0  0  0  0  0  0
  -30.1323   16.3047  -25.4754 N   0  0  0  0  0  0  0  0  0  0  0  0
  -31.0946   16.8226  -26.1556 C   0  0  0  0  0  0  0  0  0  0  0  0
  -32.4045   16.3031  -26.0398 N   0  0  0  0  0  0  0  0  0  0  0  0
  -32.7119   15.4188  -24.9262 C   0  0  0  0  0  0  0  0  0  0  0  0
  -34.1204   14.9732  -24.9624 C   0  0  0  0  0  0  0  0  0  0  0  0
  -34.4670   13.8154  -25.6446 C   0  0  0  0  0  0  0  0  0  0  0  0
  -35.7723   13.3739  -25.6965 C   0  0  0  0  0  0  0  0  0  0  0  0
  -36.7601   14.0945  -25.0584 C   0  0  0  0  0  0  0  0  0  0  0  0
  -36.4069   15.2590  -24.3732 C   0  0  0  0  0  0  0  0  0  0  0  0
  -35.1164   15.7025  -24.3173 C   0  0  0  0  0  0  0  0  0  0  0  0
  -30.8481   17.9281  -27.0347 N   0  0  0  0  0  0  0  0  0  0  0  0
  -29.5414   18.4725  -27.1725 C   0  0  0  0  0  0  0  0  0  0  0  0
  -28.6269   17.9414  -26.4930 O   0  0  0  0  0  0  0  0  0  0  0  0
  -29.2758   19.6053  -28.0700 C   0  0  0  0  0  0  0  0  0  0  0  0
  -30.2596   20.1659  -28.7919 N   0  0  0  0  0  0  0  0  0  0  0  0
  -29.9704   21.2099  -29.6079 C   0  0  0  0  0  0  0  0  0  0  0  0
  -31.2307   21.9713  -30.5693 Cl  0  0  0  0  0  0  0  0  0  0  0  0
  -28.6977   21.7275  -29.7314 C   0  0  0  0  0  0  0  0  0  0  0  0
  -28.4389   22.8234  -30.5992 N   0  0  0  0  0  0  0  0  0  0  0  0
  -27.7087   21.1534  -28.9968 N   0  0  0  0  0  0  0  0  0  0  0  0
  -28.0108   20.1112  -28.1855 C   0  0  0  0  0  0  0  0  0  0  0  0
  -26.9667   19.4987  -27.4045 N   0  0  0  0  0  0  0  0  0  0  0  0
  2  3  2  0
  3  4  1  0
  4  5  1  0
  5  6  1  0
  6  7  2  0
  7  8  1  0
  8  9  2  0
  9 10  1  0
 10 11  2  0
  3 12  1  0
 12 13  1  0
 13 14  2  0
 13 15  1  0
 15 16  2  0
 16 17  1  0
 17 18  1  0
 17 19  2  0
 19 20  1  0
 19 21  1  0
 21 22  2  0
 22 23  1  0
 11  6  1  0
 22 15  1  0
M  END
$$$$
