
     RDKit          3D

 25 27  0  0  0  0  0  0  0  0999 V2000
  -12.9155   43.5107  -18.8436 C   0  0  0  0  0  0  0  0  0  0  0  0
  -14.2684   43.1562  -19.0449 O   0  0  0  0  0  0  0  0  0  0  0  0
  -15.0373   42.6054  -18.0453 N   0  0  0  0  0  0  0  0  0  0  0  0
  -16.1239   41.9759  -18.3555 C   0  0  0  0  0  0  0  0  0  0  0  0
  -16.0364   40.7340  -19.0351 N   0  0  0  0  0  0  0  0  0  0  0  0
  -17.1691   40.2910  -19.7682 C   0  0  0  0  0  0  0  0  0  0  0  0
  -18.4538   40.6634  -19.6348 N   0  0  0  0  0  0  0  0  0  0  0  0
  -19.1881   39.9744  -20.5532 C   0  0  0  0  0  0  0  0  0  0  0  0
  -20.4956   39.9536  -20.8584 N   0  0  0  0  0  0  0  0  0  0  0  0
  -20.9373   39.1504  -21.8396 C   0  0  0  0  0  0  0  0  0  0  0  0
  -20.0537   38.3461  -22.5358 C   0  0  0  0  0  0  0  0  0  0  0  0
  -18.7166   38.3721  -22.2185 C   0  0  0  0  0  0  0  0  0  0  0  0
  -17.7682   37.4997  -22.9759 C   0  0  0  0  0  0  0  0  0  0  0  0
  -17.0826   38.3265  -24.0769 C   0  0  0  0  0  0  0  0  0  0  0  0
  -18.3988   36.4498  -23.6119 O   0  0  0  0  0  0  0  0  0  0  0  0
  -18.9450   35.3742  -22.9584 C   0  0  0  0  0  0  0  0  0  0  0  0
  -20.2975   35.1372  -22.8481 C   0  0  0  0  0  0  0  0  0  0  0  0
  -20.8083   34.0216  -22.1688 C   0  0  0  0  0  0  0  0  0  0  0  0
  -19.9803   33.1134  -21.5817 C   0  0  0  0  0  0  0  0  0  0  0  0
  -20.6505   31.7406  -20.7470 Cl  0  0  0  0  0  0  0  0  0  0  0  0
  -18.6178   33.3438  -21.6876 C   0  0  0  0  0  0  0  0  0  0  0  0
  -18.1105   34.4236  -22.3448 C   0  0  0  0  0  0  0  0  0  0  0  0
  -16.6527   34.6554  -22.4490 C   0  0  0  0  0  0  0  0  0  0  0  0
  -18.3143   39.1863  -21.2336 N   0  0  0  0  0  0  0  0  0  0  0  0
  -17.0964   39.3802  -20.7569 N   0  0  0  0  0  0  0  0  0  0  0  0
  1  2  1  0
  2  3  1  0
  3  4  2  0
  4  5  1  0
  5  6  1  0
  6  7  1  0
  7  8  2  0
  8  9  1  0
  9 10  2  0
 10 11  1  0
 11 12  2  0
 12 13  1  0
 13 14  1  0
 13 15  1  0
 15 16  1  0
 16 17  2  0
 17 18  1  0
 18 19  2  0
 19 20  1  0
 19 21  1  0
 21 22  2  0
 22 23  1  0
 12 24  1  0
 24 25  1  0
 25  6  2  0
 24  8  1  0
 22 16  1  0
M  END
$$$$
