
     RDKit          3D

 18 20  0  0  0  0  0  0  0  0999 V2000
  -17.8502   42.0791  -25.3801 C   0  0  0  0  0  0  0  0  0  0  0  0
  -18.6339   41.9385  -24.0801 C   0  0  0  0  0  0  0  0  0  0  0  0
  -19.7772   42.9461  -24.1592 C   0  0  0  0  0  0  0  0  0  0  0  0
  -17.7508   42.2688  -22.9081 C   0  0  0  0  0  0  0  0  0  0  0  0
  -18.2328   41.5600  -21.6474 C   0  0  0  0  0  0  0  0  0  0  0  0
  -18.4680   40.1210  -21.8997 C   0  0  0  0  0  0  0  0  0  0  0  0
  -18.9051   39.6930  -23.0739 C   0  0  0  0  0  0  0  0  0  0  0  0
  -19.1349   40.6182  -24.0518 O   0  0  0  0  0  0  0  0  0  0  0  0
  -19.1447   38.2584  -23.3409 C   0  0  0  0  0  0  0  0  0  0  0  0
  -19.5994   37.8387  -24.5703 C   0  0  0  0  0  0  0  0  0  0  0  0
  -19.8264   36.5139  -24.8338 C   0  0  0  0  0  0  0  0  0  0  0  0
  -19.5925   35.5835  -23.8420 C   0  0  0  0  0  0  0  0  0  0  0  0
  -19.1362   36.0015  -22.6073 C   0  0  0  0  0  0  0  0  0  0  0  0
  -18.9044   37.3360  -22.3323 C   0  0  0  0  0  0  0  0  0  0  0  0
  -18.4224   37.7411  -21.0166 C   0  0  0  0  0  0  0  0  0  0  0  0
  -18.1979   36.9236  -20.0880 O   0  0  0  0  0  0  0  0  0  0  0  0
  -18.2051   39.1735  -20.8155 C   0  0  0  0  0  0  0  0  0  0  0  0
  -17.7910   39.5900  -19.7067 O   0  0  0  0  0  0  0  0  0  0  0  0
  1  2  1  0
  2  3  1  0
  2  4  1  0
  4  5  1  0
  5  6  1  0
  6  7  2  0
  7  8  1  0
  7  9  1  0
  9 10  2  0
 10 11  1  0
 11 12  2  0
 12 13  1  0
 13 14  2  0
 14 15  1  0
 15 16  2  0
 15 17  1  0
 17 18  2  0
  8  2  1  0
 14  9  1  0
 17  6  1  0
M  END
$$$$
