
     RDKit          3D

 21 22  0  0  0  0  0  0  0  0999 V2000
  -38.4117   10.5618  -39.1554 C   0  0  0  0  0  0  0  0  0  0  0  0
  -39.3302   10.0661  -40.1447 N   0  0  0  0  0  0  0  0  0  0  0  0
  -38.9085    9.0441  -41.0816 C   0  0  0  0  0  0  0  0  0  0  0  0
  -40.6553   10.5766  -40.2075 C   0  0  0  0  0  0  0  0  0  0  0  0
  -41.1128   11.5414  -39.3514 C   0  0  0  0  0  0  0  0  0  0  0  0
  -42.3984   12.0335  -39.4158 C   0  0  0  0  0  0  0  0  0  0  0  0
  -43.2971   11.5536  -40.3781 C   0  0  0  0  0  0  0  0  0  0  0  0
  -44.5048   12.0833  -40.3636 N   0  0  0  0  0  0  0  0  0  0  0  0
  -45.5397   11.8139  -41.1562 C   0  0  0  0  0  0  0  0  0  0  0  0
  -46.7419   12.4963  -40.9692 C   0  0  0  0  0  0  0  0  0  0  0  0
  -47.8028   12.2083  -41.7950 C   0  0  0  0  0  0  0  0  0  0  0  0
  -47.7832   11.2885  -42.8095 C   0  0  0  0  0  0  0  0  0  0  0  0
  -48.7967   11.0582  -43.5485 N   0  0  0  0  0  4  0  0  0  0  0  0
  -50.0170   11.8020  -43.3017 C   0  0  0  0  0  0  0  0  0  0  0  0
  -48.7437   10.0829  -44.6089 C   0  0  0  0  0  0  0  0  0  0  0  0
  -46.5966   10.5936  -43.0179 C   0  0  0  0  0  0  0  0  0  0  0  0
  -45.4966   10.8308  -42.2300 C   0  0  0  0  0  0  0  0  0  0  0  0
  -43.9826   10.0477  -42.3807 S   0  0  0  0  0  0  0  0  0  0  0  0
  -42.8296   10.5828  -41.2361 C   0  0  0  0  0  0  0  0  0  0  0  0
  -41.5380   10.1023  -41.1558 C   0  0  0  0  0  0  0  0  0  0  0  0
  -44.1810   10.8630  -41.5673 Cl  0  0  0  0  0 15  0  0  0  0  0  0
  1  2  1  0
  2  3  1  0
  2  4  1  0
  4  5  2  0
  5  6  1  0
  6  7  2  0
  7  8  1  0
  8  9  2  0
  9 10  1  0
 10 11  2  0
 11 12  1  0
 12 13  2  3
 13 14  1  0
 13 15  1  0
 12 16  1  0
 16 17  2  0
 17 18  1  0
 18 19  1  0
 19 20  2  0
 20  4  1  0
 19  7  1  0
 17  9  1  0
M  CHG  2  13   1  21  -1
M  END
$$$$
