
     RDKit          3D

 25 26  0  0  0  0  0  0  0  0999 V2000
  -17.9107   43.2636  -24.7779 O   0  0  0  0  0  0  0  0  0  0  0  0
  -18.0072   43.8827  -23.3844 S   0  0  0  0  0  6  0  0  0  0  0  0
  -18.7453   45.2105  -23.5196 O   0  0  0  0  0  0  0  0  0  0  0  0
  -18.7770   42.8442  -22.3072 N   0  0  0  0  0  0  0  0  0  0  0  0
  -18.5789   41.4685  -22.0614 C   0  0  0  0  0  0  0  0  0  0  0  0
  -18.2678   40.6238  -23.1391 C   0  0  0  0  0  0  0  0  0  0  0  0
  -18.0932   39.2729  -23.0220 C   0  0  0  0  0  0  0  0  0  0  0  0
  -18.2274   38.6802  -21.7692 C   0  0  0  0  0  0  0  0  0  0  0  0
  -18.0212   37.2130  -21.7397 C   0  0  0  0  0  0  0  0  0  0  0  0
  -18.9905   36.5577  -22.5335 O   0  0  0  0  0  0  0  0  0  0  0  0
  -18.2382   36.6706  -20.3180 C   0  0  0  0  0  0  0  0  0  0  0  0
  -18.0116   35.3084  -20.3359 F   0  0  0  0  0  0  0  0  0  0  0  0
  -17.2627   37.2106  -19.4724 F   0  0  0  0  0  0  0  0  0  0  0  0
  -19.4491   37.0214  -19.8124 F   0  0  0  0  0  0  0  0  0  0  0  0
  -16.6635   36.7612  -22.1549 C   0  0  0  0  0  0  0  0  0  0  0  0
  -15.7651   37.3943  -21.2751 F   0  0  0  0  0  0  0  0  0  0  0  0
  -16.4387   35.4249  -22.0604 F   0  0  0  0  0  0  0  0  0  0  0  0
  -16.3606   37.2978  -23.3928 F   0  0  0  0  0  0  0  0  0  0  0  0
  -18.5262   39.4652  -20.7075 C   0  0  0  0  0  0  0  0  0  0  0  0
  -18.6985   40.8405  -20.8540 C   0  0  0  0  0  0  0  0  0  0  0  0
  -16.3305   44.3343  -22.9256 C   0  0  0  0  0  0  0  0  0  0  0  0
  -15.3442   43.5792  -22.4503 C   0  0  0  0  0  0  0  0  0  0  0  0
  -14.1525   44.1903  -22.1826 C   0  0  0  0  0  0  0  0  0  0  0  0
  -14.0859   45.4665  -22.4175 C   0  0  0  0  0  0  0  0  0  0  0  0
  -15.6896   45.9439  -23.0393 S   0  0  0  0  0  0  0  0  0  0  0  0
  1  2  2  0
  2  3  2  0
  2  4  1  0
  4  5  1  0
  5  6  2  0
  6  7  1  0
  7  8  2  0
  8  9  1  0
  9 10  1  0
  9 11  1  0
 11 12  1  0
 11 13  1  0
 11 14  1  0
  9 15  1  0
 15 16  1  0
 15 17  1  0
 15 18  1  0
  8 19  1  0
 19 20  2  0
  2 21  1  0
 21 22  2  0
 22 23  1  0
 23 24  2  0
 24 25  1  0
 20  5  1  0
 25 21  1  0
M  END
$$$$
