
     RDKit          3D

 24 26  0  0  0  0  0  0  0  0999 V2000
  -18.8064   38.9059  -23.1297 Cl  0  0  0  0  0  0  0  0  0  0  0  0
  -16.4873   33.9526  -22.6443 Cl  0  0  0  0  0  0  0  0  0  0  0  0
  -17.3281   35.4685  -22.3318 C   0  0  0  0  0  0  0  0  0  0  0  0
  -16.7358   36.4919  -21.6263 C   0  0  0  0  0  0  0  0  0  0  0  0
  -17.4107   37.6929  -21.3826 C   0  0  0  0  0  0  0  0  0  0  0  0
  -18.6946   37.9022  -21.8376 C   0  0  0  0  0  0  0  0  0  0  0  0
  -19.4778   39.1250  -21.6236 C   0  0  0  0  0  0  0  0  0  0  0  0
  -19.2608   40.1632  -22.5993 N   0  0  0  0  0  0  0  0  0  0  0  0
  -19.8983   40.3701  -23.7665 C   0  0  0  0  0  0  0  0  0  0  0  0
  -20.9924   39.5607  -24.3561 C   0  0  0  0  0  0  0  0  0  0  0  0
  -20.3970   38.5567  -25.2026 N   0  0  0  0  0  0  0  0  0  0  0  0
  -19.6301   39.0725  -26.2861 C   0  0  0  0  0  0  0  0  0  0  0  0
  -20.1109   38.4303  -27.5389 C   0  0  0  0  0  0  0  0  0  0  0  0
  -21.0282   37.3254  -27.1138 C   0  0  0  0  0  0  0  0  0  0  0  0
  -21.2653   37.5213  -25.6320 C   0  0  0  0  0  0  0  0  0  0  0  0
  -19.3880   41.4661  -24.3725 N   0  0  0  0  0  0  0  0  0  0  0  0
  -18.4123   41.9828  -23.6035 C   0  0  0  0  0  0  0  0  0  0  0  0
  -17.5995   43.0796  -23.7733 C   0  0  0  0  0  0  0  0  0  0  0  0
  -16.6684   43.3869  -22.8086 C   0  0  0  0  0  0  0  0  0  0  0  0
  -16.5928   42.5691  -21.7006 C   0  0  0  0  0  0  0  0  0  0  0  0
  -17.4121   41.4733  -21.5415 C   0  0  0  0  0  0  0  0  0  0  0  0
  -18.3513   41.1485  -22.4973 C   0  0  0  0  0  0  0  0  0  0  0  0
  -19.2700   36.8482  -22.5493 C   0  0  0  0  0  0  0  0  0  0  0  0
  -18.6113   35.6646  -22.7922 C   0  0  0  0  0  0  0  0  0  0  0  0
  2  3  1  0
  3  4  2  0
  4  5  1  0
  5  6  2  0
  6  7  1  0
  7  8  1  0
  8  9  1  0
  9 10  1  0
 10 11  1  0
 11 12  1  0
 12 13  1  0
 13 14  1  0
 14 15  1  0
  9 16  2  0
 16 17  1  0
 17 18  2  0
 18 19  1  0
 19 20  2  0
 20 21  1  0
 21 22  2  0
  6 23  1  0
 23 24  2  0
 24  3  1  0
 22  8  1  0
 15 11  1  0
 22 17  1  0
M  END
$$$$
