
     RDKit          3D

 33 36  0  0  0  0  0  0  0  0999 V2000
  -36.5010   15.6421  -24.2331 C   0  0  0  0  0  0  0  0  0  0  0  0
  -35.4419   14.5532  -24.3713 C   0  0  0  0  0  0  0  0  0  0  0  0
  -36.0452   13.2071  -24.1032 C   0  0  0  0  0  0  0  0  0  0  0  0
  -34.7482   14.6442  -25.5765 O   0  0  0  0  0  0  0  0  0  0  0  0
  -33.3660   14.5608  -25.6997 C   0  0  0  0  0  0  0  0  0  0  0  0
  -32.8850   13.3860  -25.6777 O   0  0  0  0  0  0  0  0  0  0  0  0
  -32.5318   15.6911  -25.8409 N   0  0  0  0  0  0  0  0  0  0  0  0
  -33.0887   16.9877  -26.0768 C   0  0  0  0  0  0  0  0  0  0  0  0
  -32.4950   17.9885  -25.1299 C   0  0  0  0  0  0  0  0  0  0  0  0
  -30.9696   17.8754  -25.0777 C   0  0  0  0  0  0  0  0  0  0  0  0
  -30.3440   18.1829  -26.2138 O   0  0  0  0  0  0  0  0  0  0  0  0
  -29.4746   18.9120  -26.8582 C   0  0  0  0  0  0  0  0  0  0  0  0
  -29.7225   20.2554  -26.9986 N   0  0  0  0  0  0  0  0  0  0  0  0
  -28.8978   21.0833  -27.6383 C   0  0  0  0  0  0  0  0  0  0  0  0
  -27.7803   20.5933  -28.1684 N   0  0  0  0  0  0  0  0  0  0  0  0
  -27.4387   19.3024  -28.0921 C   0  0  0  0  0  0  0  0  0  0  0  0
  -28.3140   18.4472  -27.4180 C   0  0  0  0  0  0  0  0  0  0  0  0
  -27.7031   17.2140  -27.5061 C   0  0  0  0  0  0  0  0  0  0  0  0
  -26.5331   17.3441  -28.1955 N   0  0  0  0  0  0  0  0  0  0  0  0
  -26.3718   18.6066  -28.5506 N   0  0  0  0  0  0  0  0  0  0  0  0
  -25.2696   19.1290  -29.2836 C   0  0  0  0  0  0  0  0  0  0  0  0
  -24.0885   19.5002  -28.6798 C   0  0  0  0  0  0  0  0  0  0  0  0
  -23.0786   19.9950  -29.4706 C   0  0  0  0  0  0  0  0  0  0  0  0
  -23.1959   20.1360  -30.8407 C   0  0  0  0  0  0  0  0  0  0  0  0
  -21.8353   20.7795  -31.7354 S   0  0  0  0  0  6  0  0  0  0  0  0
  -21.4758   22.3855  -31.0704 C   0  0  0  0  0  0  0  0  0  0  0  0
  -20.6640   19.8674  -31.5087 O   0  0  0  0  0  0  0  0  0  0  0  0
  -22.1340   20.8434  -33.2032 O   0  0  0  0  0  0  0  0  0  0  0  0
  -24.3701   19.7654  -31.4296 C   0  0  0  0  0  0  0  0  0  0  0  0
  -25.3985   19.2670  -30.6646 C   0  0  0  0  0  0  0  0  0  0  0  0
  -26.5681   18.8966  -31.2421 F   0  0  0  0  0  0  0  0  0  0  0  0
  -30.6303   16.4451  -24.6258 C   0  0  0  0  0  0  0  0  0  0  0  0
  -31.1047   15.5306  -25.7453 C   0  0  0  0  0  0  0  0  0  0  0  0
  1  2  1  0
  2  3  1  0
  2  4  1  0
  4  5  1  0
  5  6  2  0
  5  7  1  0
  7  8  1  0
  8  9  1  0
  9 10  1  0
 10 11  1  0
 11 12  1  0
 12 13  2  0
 13 14  1  0
 14 15  2  0
 15 16  1  0
 16 17  2  0
 17 18  1  0
 18 19  2  0
 19 20  1  0
 20 21  1  0
 21 22  2  0
 22 23  1  0
 23 24  2  0
 24 25  1  0
 25 26  1  0
 25 27  2  0
 25 28  2  0
 24 29  1  0
 29 30  2  0
 30 31  1  0
 10 32  1  0
 32 33  1  0
 33  7  1  0
 17 12  1  0
 30 21  1  0
 20 16  1  0
M  END
$$$$
