
     RDKit          3D

 31 36  0  0  0  0  0  0  0  0999 V2000
  -15.0293   -1.8465  -34.9764 C   0  0  0  0  0  0  0  0  0  0  0  0
  -15.5066   -0.8172  -34.0368 C   0  0  0  0  0  0  0  0  0  0  0  0
  -16.8057   -0.6006  -33.9695 C   0  0  0  0  0  0  0  0  0  0  0  0
  -17.9539   -1.1779  -34.6511 C   0  0  0  0  0  0  0  0  0  0  0  0
  -17.8608   -1.9977  -35.5982 O   0  0  0  0  0  0  0  0  0  0  0  0
  -19.1530   -0.6264  -34.0276 C   0  0  1  0  0  0  0  0  0  0  0  0
  -18.6934    0.7873  -33.6413 C   0  0  1  0  0  0  0  0  0  0  0  0
  -19.6928    1.3179  -32.6699 C   0  0  0  0  0  0  0  0  0  0  0  0
  -21.0945    1.0454  -33.1464 C   0  0  0  0  0  0  0  0  0  0  0  0
  -21.3766    0.2528  -34.1499 C   0  0  0  0  0  0  0  0  0  0  0  0
  -22.7979    0.0544  -34.5366 C   0  0  0  0  0  0  0  0  0  0  0  0
  -22.9542   -0.6179  -35.8671 C   0  0  1  0  0  0  0  0  0  0  0  0
  -22.8297    0.2868  -36.9280 O   0  0  0  0  0  0  0  0  0  0  0  0
  -22.1350   -1.8517  -36.0419 C   0  0  0  0  0  0  0  0  0  0  0  0
  -20.8920   -1.8581  -35.2179 C   0  0  0  0  0  0  0  0  0  0  0  0
  -20.3375   -0.4775  -34.9406 C   0  0  2  0  0  0  0  0  0  0  0  0
  -19.9361    0.2430  -36.1839 C   0  0  0  0  0  0  0  0  0  0  0  0
  -17.3537    0.4457  -33.0253 C   0  0  0  0  0  0  0  0  0  0  0  0
  -16.3573    1.5778  -33.0921 C   0  0  0  0  0  0  0  0  0  0  0  0
  -15.0906    1.0432  -32.4152 C   0  0  0  0  0  0  0  0  0  0  0  0
  -14.5092   -0.0717  -33.2158 C   0  0  2  0  0  0  0  0  0  0  0  0
  -13.5499    0.5069  -34.0784 O   0  0  0  0  0  0  0  0  0  0  0  0
  -12.4235    0.5515  -33.3139 C   0  0  2  0  0  0  0  0  0  0  0  0
  -11.1518    0.8433  -34.0157 C   0  0  0  0  0  0  0  0  0  0  0  0
  -10.0438    0.7099  -32.9604 C   0  0  2  0  0  0  0  0  0  0  0  0
   -8.7143    1.1302  -33.4733 C   0  0  0  0  0  0  0  0  0  0  0  0
  -10.0667   -0.6906  -32.4141 C   0  0  0  0  0  0  0  0  0  0  0  0
  -11.3634   -0.9352  -31.7902 N   0  0  0  0  0  0  0  0  0  0  0  0
  -12.3462   -0.9026  -32.8218 C   0  0  1  0  0  0  0  0  0  0  0  0
  -13.7583   -1.0817  -32.3684 C   0  0  1  0  0  0  0  0  0  0  0  0
  -13.8081   -0.7124  -30.8890 C   0  0  0  0  0  0  0  0  0  0  0  0
  1  2  1  0
  2  3  2  0
  3  4  1  0
  4  5  2  0
  6  4  1  6
  6  7  1  0
  7  8  1  1
  8  9  1  0
  9 10  2  0
 10 11  1  0
 11 12  1  0
 12 13  1  6
 12 14  1  0
 14 15  1  0
 15 16  1  0
 16 17  1  6
  7 18  1  0
 18 19  1  0
 19 20  1  0
 21 20  1  1
 21 22  1  0
 22 23  1  0
 23 24  1  6
 24 25  1  0
 25 26  1  6
 25 27  1  0
 27 28  1  0
 29 28  1  1
 29 30  1  0
 30 31  1  1
 21  2  1  0
 29 23  1  0
 18  3  1  0
 30 21  1  0
 16  6  1  0
 16 10  1  0
M  END
$$$$
