
     RDKit          3D

 24 27  0  0  0  0  0  0  0  0999 V2000
  -15.5954   43.4625  -19.7925 C   0  0  0  0  0  0  0  0  0  0  0  0
  -16.3960   42.4770  -20.5948 C   0  0  0  0  0  0  0  0  0  0  0  0
  -16.7984   42.6485  -21.8658 N   0  0  0  0  0  0  0  0  0  0  0  0
  -17.4945   41.5635  -22.2666 C   0  0  0  0  0  0  0  0  0  0  0  0
  -18.1278   41.1917  -23.4320 C   0  0  0  0  0  0  0  0  0  0  0  0
  -18.7693   39.9797  -23.5253 C   0  0  0  0  0  0  0  0  0  0  0  0
  -18.7763   39.1311  -22.4392 C   0  0  0  0  0  0  0  0  0  0  0  0
  -19.4538   37.8880  -22.5861 N   0  0  0  0  0  0  0  0  0  0  0  0
  -18.8778   36.6257  -22.2200 C   0  0  0  0  0  0  0  0  0  0  0  0
  -17.9988   36.6703  -21.3479 O   0  0  0  0  0  0  0  0  0  0  0  0
  -19.2936   35.4157  -22.8215 N   0  0  0  0  0  0  0  0  0  0  0  0
  -19.0819   34.1309  -22.2943 C   0  0  0  0  0  0  0  0  0  0  0  0
  -17.8732   33.6334  -21.9081 C   0  0  0  0  0  0  0  0  0  0  0  0
  -17.7964   32.3380  -21.3986 C   0  0  0  0  0  0  0  0  0  0  0  0
  -18.8769   31.5482  -21.2701 N   0  0  0  0  0  0  0  0  0  0  0  0
  -20.0714   32.0237  -21.6455 C   0  0  0  0  0  0  0  0  0  0  0  0
  -21.1911   31.2429  -21.5267 C   0  0  0  0  0  0  0  0  0  0  0  0
  -22.4232   31.7332  -21.9138 C   0  0  0  0  0  0  0  0  0  0  0  0
  -22.5161   33.0107  -22.4191 C   0  0  0  0  0  0  0  0  0  0  0  0
  -21.3992   33.7264  -22.5133 N   0  0  0  0  0  0  0  0  0  0  0  0
  -20.1772   33.2924  -22.1494 C   0  0  0  0  0  0  0  0  0  0  0  0
  -18.1459   39.5035  -21.2821 C   0  0  0  0  0  0  0  0  0  0  0  0
  -17.5053   40.7119  -21.1866 C   0  0  0  0  0  0  0  0  0  0  0  0
  -16.8348   41.3048  -20.2121 O   0  0  0  0  0  0  0  0  0  0  0  0
  1  2  1  0
  2  3  2  0
  3  4  1  0
  4  5  2  0
  5  6  1  0
  6  7  2  0
  7  8  1  0
  8  9  1  0
  9 10  2  0
  9 11  1  0
 11 12  1  0
 12 13  2  0
 13 14  1  0
 14 15  2  0
 15 16  1  0
 16 17  2  0
 17 18  1  0
 18 19  2  0
 19 20  1  0
 20 21  2  0
  7 22  1  0
 22 23  2  0
 23 24  1  0
 24  2  1  0
 23  4  1  0
 21 12  1  0
 21 16  1  0
M  END
$$$$
