
     RDKit          3D

 30 32  0  0  0  0  0  0  0  0999 V2000
  -19.1940   45.7491  -23.9390 C   0  0  0  0  0  0  0  0  0  0  0  0
  -18.2804   44.8967  -23.1016 C   0  0  0  0  0  0  0  0  0  0  0  0
  -17.1994   44.8139  -22.6255 N   0  0  0  0  0  0  0  0  0  0  0  0
  -16.7251   43.8890  -21.8884 N   0  0  0  0  0  0  0  0  0  0  0  0
  -17.4285   42.8628  -21.5543 C   0  0  0  0  0  0  0  0  0  0  0  0
  -17.2056   41.4729  -20.5212 S   0  0  0  0  0  0  0  0  0  0  0  0
  -18.4923   40.3351  -20.4647 C   0  0  0  0  0  0  0  0  0  0  0  0
  -18.8069   39.2114  -21.2924 C   0  0  0  0  0  0  0  0  0  0  0  0
  -18.1162   38.6761  -22.2486 C   0  0  0  0  0  0  0  0  0  0  0  0
  -16.8195   39.1583  -22.6732 C   0  0  0  0  0  0  0  0  0  0  0  0
  -16.2163   40.0956  -22.1883 O   0  0  0  0  0  0  0  0  0  0  0  0
  -16.1183   38.5413  -23.7425 O   0  0  0  0  0  1  0  0  0  0  0  0
  -18.5176   37.4648  -22.9501 N   0  0  0  0  0  0  0  0  0  0  0  0
  -18.1404   36.2901  -23.6437 C   0  0  0  0  0  0  0  0  0  0  0  0
  -17.1234   35.9125  -24.2611 O   0  0  0  0  0  0  0  0  0  0  0  0
  -19.4337   35.6078  -23.3809 C   0  0  1  0  0  0  0  0  0  0  0  0
  -19.3894   34.8030  -22.1862 N   0  0  0  0  0  0  0  0  0  0  0  0
  -19.9501   33.4878  -22.1432 C   0  0  0  0  0  0  0  0  0  0  0  0
  -20.4855   33.0196  -23.1740 O   0  0  0  0  0  0  0  0  0  0  0  0
  -19.9136   32.6832  -20.9124 C   0  0  0  0  0  0  0  0  0  0  0  0
  -18.8716   31.7058  -20.8179 N   0  0  0  0  0  0  0  0  0  0  0  0
  -19.0025   30.4076  -21.2402 C   0  0  0  0  0  0  0  0  0  0  0  0
  -17.8552   29.7869  -20.9896 N   0  0  0  0  0  0  0  0  0  0  0  0
  -17.0453   30.6430  -20.4399 N   0  0  0  0  0  0  0  0  0  0  0  0
  -17.6384   31.8009  -20.3294 N   0  0  0  0  0  0  0  0  0  0  0  0
  -19.8656   37.0526  -23.1231 C   0  0  1  0  0  0  0  0  0  0  0  0
  -20.5915   37.0764  -21.4315 S   0  0  0  0  0  0  0  0  0  0  0  0
  -20.2054   38.6938  -20.8848 C   0  0  0  0  0  0  0  0  0  0  0  0
  -19.0218   43.2881  -22.4434 S   0  0  0  0  0  0  0  0  0  0  0  0
  -18.8412   37.8524  -22.0501 Na  0  0  0  0  0 15  0  0  0  0  0  0
  1  2  1  0
  2  3  2  0
  3  4  1  0
  4  5  2  0
  5  6  1  0
  6  7  1  0
  7  8  1  0
  8  9  2  0
  9 10  1  0
 10 11  2  0
 10 12  1  0
  9 13  1  0
 13 14  1  0
 14 15  2  0
 14 16  1  0
 16 17  1  1
 17 18  1  0
 18 19  2  0
 18 20  1  0
 20 21  1  0
 21 22  1  0
 22 23  2  0
 23 24  1  0
 24 25  2  0
 16 26  1  0
 26 27  1  1
 27 28  1  0
  5 29  1  0
 29  2  1  0
 28  8  1  0
 26 13  1  0
 25 21  1  0
M  CHG  2  12  -1  30   1
M  END
$$$$
