
     RDKit          3D

 33 35  0  0  0  0  0  0  0  0999 V2000
  -23.6749   21.1018  -29.9705 C   0  0  0  0  0  0  0  0  0  0  0  0
  -24.1435   21.8306  -31.0836 O   0  0  0  0  0  0  0  0  0  0  0  0
  -25.4897   22.1505  -31.1550 C   0  0  0  0  0  0  0  0  0  0  0  0
  -26.4363   21.3348  -30.5912 C   0  0  0  0  0  0  0  0  0  0  0  0
  -27.7825   21.6544  -30.6638 C   0  0  0  0  0  0  0  0  0  0  0  0
  -28.7298   20.7279  -30.0332 C   0  0  0  0  0  0  0  0  0  0  0  0
  -29.7017   20.2572  -30.6980 O   0  0  0  0  0  0  0  0  0  0  0  0
  -28.6446   20.2988  -28.6869 N   0  0  0  0  0  0  0  0  0  0  0  0
  -27.8959   19.1569  -28.3044 C   0  0  0  0  0  0  0  0  0  0  0  0
  -28.4939   17.6833  -28.7554 S   0  0  0  0  0  0  0  0  0  0  0  0
  -26.6910   19.2152  -27.5554 N   0  0  0  0  0  0  0  0  0  0  0  0
  -26.4695   18.1879  -26.5671 C   0  0  0  0  0  0  0  0  0  0  0  0
  -26.1158   18.5563  -25.2887 C   0  0  0  0  0  0  0  0  0  0  0  0
  -25.8842   17.6548  -24.2834 C   0  0  0  0  0  0  0  0  0  0  0  0
  -26.0188   16.2997  -24.5967 C   0  0  0  0  0  0  0  0  0  0  0  0
  -26.3706   15.9009  -25.8657 C   0  0  0  0  0  0  0  0  0  0  0  0
  -26.4832   14.5094  -26.1072 N   0  0  0  0  0  0  0  0  0  0  0  0
  -25.4569   13.7353  -26.6874 C   0  0  0  0  0  0  0  0  0  0  0  0
  -24.4304   14.3806  -27.0743 O   0  0  0  0  0  0  0  0  0  0  0  0
  -25.4802   12.2942  -26.8720 C   0  0  0  0  0  0  0  0  0  0  0  0
  -26.1414   11.4423  -26.0143 C   0  0  0  0  0  0  0  0  0  0  0  0
  -26.1416   10.0728  -26.2142 C   0  0  0  0  0  0  0  0  0  0  0  0
  -25.4839    9.4883  -27.2769 C   0  0  0  0  0  0  0  0  0  0  0  0
  -24.8211   10.3396  -28.1373 C   0  0  0  0  0  0  0  0  0  0  0  0
  -24.8223   11.7077  -27.9356 C   0  0  0  0  0  0  0  0  0  0  0  0
  -26.5922   16.8424  -26.8351 C   0  0  0  0  0  0  0  0  0  0  0  0
  -28.1466   22.8005  -31.3104 C   0  0  0  0  0  0  0  0  0  0  0  0
  -27.1970   23.6324  -31.8844 C   0  0  0  0  0  0  0  0  0  0  0  0
  -27.4994   24.8018  -32.5498 O   0  0  0  0  0  0  0  0  0  0  0  0
  -28.0651   24.8998  -33.8109 C   0  0  0  0  0  0  0  0  0  0  0  0
  -25.8436   23.2861  -31.7966 C   0  0  0  0  0  0  0  0  0  0  0  0
  -24.8845   24.1104  -32.3670 O   0  0  0  0  0  0  0  0  0  0  0  0
  -24.4561   23.7535  -33.6756 C   0  0  0  0  0  0  0  0  0  0  0  0
  1  2  1  0
  2  3  1  0
  3  4  2  0
  4  5  1  0
  5  6  1  0
  6  7  2  0
  6  8  1  0
  8  9  1  0
  9 10  2  0
  9 11  1  0
 11 12  1  0
 12 13  2  0
 13 14  1  0
 14 15  2  0
 15 16  1  0
 16 17  1  0
 17 18  1  0
 18 19  2  0
 18 20  1  0
 20 21  2  0
 21 22  1  0
 22 23  2  0
 23 24  1  0
 24 25  2  0
 16 26  2  0
  5 27  2  0
 27 28  1  0
 28 29  1  0
 29 30  1  0
 28 31  2  0
 31 32  1  0
 32 33  1  0
 31  3  1  0
 26 12  1  0
 25 20  1  0
M  END
$$$$
