
     RDKit          3D

 26 30  0  0  0  0  0  0  0  0999 V2000
  -15.8314   43.6248  -20.1906 O   0  0  0  0  0  0  0  0  0  0  0  0
  -16.5376   43.3568  -21.3414 C   0  0  0  0  0  0  0  0  0  0  0  0
  -16.8254   44.4077  -22.1862 C   0  0  0  0  0  0  0  0  0  0  0  0
  -17.5334   44.1904  -23.3566 C   0  0  0  0  0  0  0  0  0  0  0  0
  -17.9233   42.9036  -23.6231 C   0  0  0  0  0  0  0  0  0  0  0  0
  -17.6531   41.8293  -22.8016 C   0  0  0  0  0  0  0  0  0  0  0  0
  -18.1049   40.4712  -23.1533 C   0  0  0  0  0  0  0  0  0  0  0  0
  -18.8517   40.2443  -24.2435 N   0  0  0  0  0  0  0  0  0  0  0  0
  -19.2821   39.0021  -24.5916 C   0  0  0  0  0  0  0  0  0  0  0  0
  -20.0727   38.8256  -25.7616 N   0  0  0  0  0  0  0  0  0  0  0  0
  -20.3594   39.9124  -26.6771 C   0  0  0  0  0  0  0  0  0  0  0  0
  -21.7893   39.8481  -27.1412 C   0  0  0  0  0  0  0  0  0  0  0  0
  -22.1301   38.5801  -27.5635 O   0  0  0  0  0  0  0  0  0  0  0  0
  -22.0654   37.6463  -26.5347 C   0  0  0  0  0  0  0  0  0  0  0  0
  -20.6142   37.5204  -26.0576 C   0  0  0  0  0  0  0  0  0  0  0  0
  -18.9478   37.9200  -23.8055 C   0  0  0  0  0  0  0  0  0  0  0  0
  -19.2067   36.6266  -23.8775 O   0  0  0  0  0  0  0  0  0  0  0  0
  -18.6582   35.9873  -22.8738 C   0  0  0  0  0  0  0  0  0  0  0  0
  -18.6346   34.6785  -22.5079 N   0  0  0  0  0  0  0  0  0  0  0  0
  -17.9817   34.2718  -21.4024 C   0  0  0  0  0  0  0  0  0  0  0  0
  -17.3193   35.1625  -20.6093 C   0  0  0  0  0  0  0  0  0  0  0  0
  -17.3414   36.4972  -20.9794 C   0  0  0  0  0  0  0  0  0  0  0  0
  -18.0035   36.9255  -22.1044 C   0  0  0  0  0  0  0  0  0  0  0  0
  -18.1708   38.1616  -22.6729 C   0  0  0  0  0  0  0  0  0  0  0  0
  -17.7770   39.4183  -22.3844 N   0  0  0  0  0  0  0  0  0  0  0  0
  -16.9508   42.0808  -21.6521 C   0  0  0  0  0  0  0  0  0  0  0  0
  1  2  1  0
  2  3  2  0
  3  4  1  0
  4  5  2  0
  5  6  1  0
  6  7  1  0
  7  8  2  0
  8  9  1  0
  9 10  1  0
 10 11  1  0
 11 12  1  0
 12 13  1  0
 13 14  1  0
 14 15  1  0
  9 16  2  0
 16 17  1  0
 17 18  1  0
 18 19  2  0
 19 20  1  0
 20 21  2  0
 21 22  1  0
 22 23  2  0
 23 24  1  0
 24 25  2  0
  6 26  2  0
 26  2  1  0
 25  7  1  0
 15 10  1  0
 24 16  1  0
 23 18  1  0
M  END
$$$$
