
     RDKit          3D

 27 28  0  0  0  0  0  0  0  0999 V2000
  -26.7029   19.8129  -28.7548 C   0  0  0  0  0  0  0  0  0  0  0  0
  -26.9140   18.8550  -27.6132 C   0  0  0  0  0  0  0  0  0  0  0  0
  -27.8424   17.8475  -27.6843 C   0  0  0  0  0  0  0  0  0  0  0  0
  -28.0119   16.9899  -26.6270 C   0  0  0  0  0  0  0  0  0  0  0  0
  -28.9600   15.9337  -26.6562 N   0  0  0  0  0  0  0  0  0  0  0  0
  -30.2769   16.2148  -26.1836 C   0  0  0  0  0  0  0  0  0  0  0  0
  -30.5262   17.3445  -25.7782 O   0  0  0  0  0  0  0  0  0  0  0  0
  -31.3038   15.2495  -26.1628 N   0  0  0  0  0  0  0  0  0  0  0  0
  -32.6061   15.4031  -25.7320 C   0  0  0  0  0  0  0  0  0  0  0  0
  -33.4500   14.2741  -25.8135 C   0  0  0  0  0  0  0  0  0  0  0  0
  -34.7571   14.2862  -25.4228 C   0  0  0  0  0  0  0  0  0  0  0  0
  -35.3305   15.4217  -24.9197 C   0  0  0  0  0  0  0  0  0  0  0  0
  -36.6912   15.4336  -24.5134 N   0  0  0  0  0  0  0  0  0  0  0  0
  -37.2483   16.6537  -23.9899 C   0  0  0  0  0  0  0  0  0  0  0  0
  -37.5022   14.2624  -24.6177 C   0  0  0  0  0  0  0  0  0  0  0  0
  -34.5205   16.5469  -24.8293 C   0  0  0  0  0  0  0  0  0  0  0  0
  -33.1959   16.5094  -25.2326 C   0  0  0  0  0  0  0  0  0  0  0  0
  -27.2357   17.1475  -25.4793 C   0  0  0  0  0  0  0  0  0  0  0  0
  -27.4154   16.2779  -24.4212 C   0  0  0  0  0  0  0  0  0  0  0  0
  -26.6583   16.4164  -23.2779 C   0  0  0  0  0  0  0  0  0  0  0  0
  -26.8171   15.5650  -22.2109 F   0  0  0  0  0  0  0  0  0  0  0  0
  -25.7363   17.4407  -23.2447 C   0  0  0  0  0  0  0  0  0  0  0  0
  -25.5380   18.3177  -24.2811 C   0  0  0  0  0  0  0  0  0  0  0  0
  -24.6440   19.3215  -24.2660 F   0  0  0  0  0  0  0  0  0  0  0  0
  -26.3075   18.1660  -25.4260 C   0  0  0  0  0  0  0  0  0  0  0  0
  -26.1832   18.9698  -26.4792 N   0  0  0  0  0  0  0  0  0  0  0  0
  -31.6712   16.3935  -25.3294 Cl  0  0  0  0  0  0  0  0  0  0  0  0
  1  2  1  0
  2  3  2  0
  3  4  1  0
  4  5  1  0
  5  6  1  0
  6  7  2  0
  6  8  1  0
  8  9  1  0
  9 10  2  0
 10 11  1  0
 11 12  2  0
 12 13  1  0
 13 14  1  0
 13 15  1  0
 12 16  1  0
 16 17  2  0
  4 18  2  0
 18 19  1  0
 19 20  2  0
 20 21  1  0
 20 22  1  0
 22 23  2  0
 23 24  1  0
 23 25  1  0
 25 26  2  0
 26  2  1  0
 17  9  1  0
 25 18  1  0
M  END
$$$$
