
     RDKit          3D

 26 27  0  0  0  0  0  0  0  0999 V2000
   -2.2033    7.5933  -44.7164 C   0  0  0  0  0  0  0  0  0  0  0  0
   -1.3508    7.3898  -43.5053 C   0  0  0  0  0  0  0  0  0  0  0  0
   -0.5876    8.3548  -43.0523 C   0  0  0  0  0  0  0  0  0  0  0  0
   -0.5834    9.6534  -43.7612 C   0  0  0  0  0  0  0  0  0  0  0  0
    0.2821    8.1996  -41.8535 C   0  0  0  0  0  0  0  0  0  0  0  0
    0.9797    9.1966  -41.5114 O   0  0  0  0  0  0  0  0  0  0  0  0
    0.3023    6.9438  -41.1434 C   0  0  0  0  0  0  0  0  0  0  0  0
    1.0717    6.7091  -39.9341 C   0  0  0  0  0  0  0  0  0  0  0  0
    2.4724    7.3752  -40.0373 C   0  0  0  0  0  0  0  0  0  0  0  0
    3.3884    6.3924  -40.7816 C   0  0  0  0  0  0  0  0  0  0  0  0
    4.3173    7.1163  -41.7205 C   0  0  0  0  0  0  0  0  0  0  0  0
    5.6621    7.2661  -41.0789 C   0  0  0  0  0  0  0  0  0  0  0  0
    6.3447    8.5526  -41.4375 C   0  0  0  0  0  0  0  0  0  0  0  0
    5.4390    9.7261  -41.2056 C   0  0  0  0  0  0  0  0  0  0  0  0
    5.2786   10.1903  -40.0719 O   0  0  0  0  0  0  0  0  0  0  0  0
    4.7806   10.2870  -42.2975 O   0  0  0  0  0  0  0  0  0  0  0  0
    0.4709    7.0341  -38.6323 C   0  0  0  0  0  0  0  0  0  0  0  0
   -0.3686    8.1583  -38.5626 C   0  0  0  0  0  0  0  0  0  0  0  0
   -0.9681    8.5589  -37.4130 C   0  0  0  0  0  0  0  0  0  0  0  0
   -0.7571    7.8458  -36.2472 C   0  0  0  0  0  0  0  0  0  0  0  0
    0.0531    6.7408  -36.2546 C   0  0  0  0  0  0  0  0  0  0  0  0
    0.6569    6.3538  -37.4617 C   0  0  0  0  0  0  0  0  0  0  0  0
   -0.4919    5.9486  -41.6232 C   0  0  0  0  0  0  0  0  0  0  0  0
   -0.4499    4.6647  -40.8730 C   0  0  0  0  0  0  0  0  0  0  0  0
   -1.3343    6.1218  -42.7959 C   0  0  0  0  0  0  0  0  0  0  0  0
   -2.0350    5.1470  -43.1652 O   0  0  0  0  0  0  0  0  0  0  0  0
  1  2  1  0
  2  3  2  0
  3  4  1  0
  3  5  1  0
  5  6  2  0
  5  7  1  0
  7  8  1  0
  8  9  1  0
  9 10  1  0
 10 11  1  0
 11 12  1  0
 12 13  1  0
 13 14  1  0
 14 15  2  0
 14 16  1  0
  8 17  1  0
 17 18  2  0
 18 19  1  0
 19 20  2  0
 20 21  1  0
 21 22  2  0
  7 23  2  0
 23 24  1  0
 23 25  1  0
 25 26  2  0
 25  2  1  0
 22 17  1  0
M  END
$$$$
