
     RDKit          3D

 55 62  0  0  0  0  0  0  0  0999 V2000
  -17.7095   49.8915  -11.7680 C   0  0  0  0  0  0  0  0  0  0  0  0
  -16.9315   50.6913  -12.7972 C   0  0  1  0  0  0  0  0  0  0  0  0
  -17.7237   50.8023  -13.9253 O   0  0  0  0  0  0  0  0  0  0  0  0
  -17.3148   51.8610  -14.7683 C   0  0  1  0  0  0  0  0  0  0  0  0
  -17.8452   51.5953  -16.0138 O   0  0  0  0  0  0  0  0  0  0  0  0
  -17.0167   50.9520  -16.8874 C   0  0  1  0  0  0  0  0  0  0  0  0
  -17.8015   49.7939  -17.4951 C   0  0  1  0  0  0  0  0  0  0  0  0
  -18.3954   49.0438  -16.4954 O   0  0  0  0  0  0  0  0  0  0  0  0
  -18.8987   50.4010  -18.3409 C   0  0  0  0  0  0  0  0  0  0  0  0
  -18.3275   51.3741  -19.3396 C   0  0  2  0  0  0  0  0  0  0  0  0
  -18.7100   50.9491  -20.5948 O   0  0  0  0  0  0  0  0  0  0  0  0
  -18.6695   49.5739  -20.7575 C   0  0  1  0  0  0  0  0  0  0  0  0
  -19.9838   48.9816  -21.1465 C   0  0  1  0  0  0  0  0  0  0  0  0
  -20.3051   49.2444  -22.4919 O   0  0  0  0  0  0  0  0  0  0  0  0
  -19.7766   47.4602  -21.1032 C   0  0  0  0  0  0  0  0  0  0  0  0
  -18.8219   47.1631  -22.2415 C   0  0  2  0  0  0  0  0  0  0  0  0
  -18.1642   45.9948  -21.9623 O   0  0  0  0  0  0  0  0  0  0  0  0
  -18.8056   44.8392  -22.4074 C   0  0  1  0  0  0  0  0  0  0  0  0
  -17.9682   44.1837  -23.4280 C   0  0  0  0  0  0  0  0  0  0  0  0
  -17.5627   42.7837  -23.2861 C   0  0  0  0  0  0  0  0  0  0  0  0
  -17.9858   42.0109  -22.0755 C   0  0  2  0  0  0  0  0  0  0  0  0
  -16.9923   42.2480  -20.9608 C   0  0  0  0  0  0  0  0  0  0  0  0
  -18.0902   40.5415  -22.4268 C   0  0  1  0  0  0  0  0  0  0  0  0
  -17.5620   39.6802  -21.3351 C   0  0  0  0  0  0  0  0  0  0  0  0
  -18.1366   38.3312  -21.2052 C   0  0  1  0  0  0  0  0  0  0  0  0
  -18.9637   38.3069  -20.0817 O   0  0  0  0  0  0  0  0  0  0  0  0
  -18.8731   37.7509  -22.3674 C   0  0  2  0  0  0  0  0  0  0  0  0
  -19.9570   36.8103  -21.8896 C   0  0  0  0  0  0  0  0  0  0  0  0
  -17.9465   36.9537  -23.2447 C   0  0  1  0  0  0  0  0  0  0  0  0
  -18.5165   35.6875  -23.7570 C   0  0  0  0  0  0  0  0  0  0  0  0
  -17.9699   34.4821  -23.5221 C   0  0  0  0  0  0  0  0  0  0  0  0
  -18.7392   33.4328  -24.1464 C   0  0  0  0  0  0  0  0  0  0  0  0
  -18.5502   32.1813  -24.1538 O   0  0  0  0  0  0  0  0  0  0  0  0
  -19.8019   34.0357  -24.7904 O   0  0  0  0  0  0  0  0  0  0  0  0
  -19.7040   35.4124  -24.5784 C   0  0  0  0  0  0  0  0  0  0  0  0
  -17.5128   37.8666  -24.3602 C   0  0  0  0  0  0  0  0  0  0  0  0
  -18.6958   38.7513  -24.5696 C   0  0  0  0  0  0  0  0  0  0  0  0
  -19.4854   38.7628  -23.2850 C   0  0  1  0  0  0  0  0  0  0  0  0
  -20.8033   38.4390  -23.6015 O   0  0  0  0  0  0  0  0  0  0  0  0
  -19.5312   40.1267  -22.6511 C   0  0  2  0  0  0  0  0  0  0  0  0
  -20.3126   41.1246  -23.4203 C   0  0  0  0  0  0  0  0  0  0  0  0
  -20.3989   42.4186  -22.6326 C   0  0  0  0  0  0  0  0  0  0  0  0
  -19.3142   42.5366  -21.6073 C   0  0  2  0  0  0  0  0  0  0  0  0
  -19.1530   43.9922  -21.2117 C   0  0  0  0  0  0  0  0  0  0  0  0
  -18.0523   48.2183  -22.6374 O   0  0  0  0  0  0  0  0  0  0  0  0
  -17.6083   49.0809  -21.6797 C   0  0  2  0  0  0  0  0  0  0  0  0
  -16.4148   48.5060  -20.9037 C   0  0  0  0  0  0  0  0  0  0  0  0
  -16.9413   51.4887  -19.2304 O   0  0  0  0  0  0  0  0  0  0  0  0
  -16.5616   51.9154  -17.9573 C   0  0  2  0  0  0  0  0  0  0  0  0
  -15.0994   52.2356  -17.8776 C   0  0  0  0  0  0  0  0  0  0  0  0
  -17.7908   53.1376  -14.1499 C   0  0  0  0  0  0  0  0  0  0  0  0
  -17.7542   52.9678  -12.6290 C   0  0  2  0  0  0  0  0  0  0  0  0
  -17.5446   54.1940  -11.9963 O   0  0  0  0  0  0  0  0  0  0  0  0
  -16.6263   52.0458  -12.2268 C   0  0  2  0  0  0  0  0  0  0  0  0
  -15.3933   52.5217  -12.6447 O   0  0  0  0  0  0  0  0  0  0  0  0
  2  1  1  1
  2  3  1  0
  3  4  1  0
  4  5  1  6
  6  5  1  1
  6  7  1  0
  7  8  1  1
  7  9  1  0
  9 10  1  0
 10 11  1  6
 12 11  1  6
 12 13  1  0
 13 14  1  6
 13 15  1  0
 15 16  1  0
 16 17  1  1
 18 17  1  1
 18 19  1  0
 19 20  1  0
 20 21  1  0
 21 22  1  1
 21 23  1  0
 23 24  1  1
 24 25  1  0
 25 26  1  1
 25 27  1  0
 27 28  1  1
 27 29  1  0
 29 30  1  6
 30 31  2  0
 31 32  1  0
 32 33  2  0
 32 34  1  0
 34 35  1  0
 29 36  1  0
 36 37  1  0
 37 38  1  0
 38 39  1  6
 38 40  1  0
 40 41  1  6
 41 42  1  0
 43 42  1  6
 43 44  1  0
 16 45  1  0
 45 46  1  0
 46 47  1  1
 10 48  1  0
 48 49  1  0
 49 50  1  6
  4 51  1  0
 51 52  1  0
 52 53  1  1
 52 54  1  0
 54 55  1  6
 54  2  1  0
 49  6  1  0
 46 12  1  0
 44 18  1  0
 43 21  1  0
 40 23  1  0
 38 27  1  0
 35 30  1  0
M  END
$$$$
