
     RDKit          3D

 23 26  0  0  0  0  0  0  0  0999 V2000
  -15.8395    0.6186  -32.0790 Cl  0  0  0  0  0  0  0  0  0  0  0  0
  -17.2079   -2.1602  -32.3315 O   0  0  0  0  0  0  0  0  0  0  0  0
  -16.4970   -1.1107  -32.1601 C   0  0  0  0  0  0  0  0  0  0  0  0
  -15.0828   -1.2370  -31.8273 C   0  0  0  0  0  0  0  0  0  0  0  0
  -14.5363   -2.4793  -31.7127 C   0  0  0  0  0  0  0  0  0  0  0  0
  -13.2130   -2.6303  -31.4131 C   0  0  0  0  0  0  0  0  0  0  0  0
  -12.4721   -1.4940  -31.2363 C   0  0  0  0  0  0  0  0  0  0  0  0
  -13.0229   -0.2001  -31.3515 C   0  0  0  0  0  0  0  0  0  0  0  0
  -14.3479   -0.0846  -31.6509 C   0  0  0  0  0  0  0  0  0  0  0  0
  -14.9769    1.2418  -31.7773 C   0  0  2  0  0  0  0  0  0  0  0  0
  -14.3023    2.1519  -30.7382 C   0  0  0  0  0  0  0  0  0  0  0  0
  -12.8593    2.2655  -31.1292 C   0  0  0  0  0  0  0  0  0  0  0  0
  -12.1428    0.9671  -31.1602 C   0  0  0  0  0  0  0  0  0  0  0  0
  -16.4688    1.2126  -31.4961 C   0  0  0  0  0  0  0  0  0  0  0  0
  -17.0648    0.1839  -32.2893 N   0  0  0  0  0  0  0  0  0  0  0  0
  -18.1674    0.3640  -33.1880 C   0  0  2  0  0  0  0  0  0  0  0  0
  -17.9634    1.3211  -34.2985 C   0  0  0  0  0  0  0  0  0  0  0  0
  -19.1604    2.1398  -34.4407 N   0  0  0  0  0  0  0  0  0  0  0  0
  -19.2909    2.9612  -33.2479 C   0  0  0  0  0  0  0  0  0  0  0  0
  -19.6823    2.0683  -32.1020 C   0  0  0  0  0  0  0  0  0  0  0  0
  -19.4947    0.6311  -32.4666 C   0  0  0  0  0  0  0  0  0  0  0  0
  -20.5534    0.3069  -33.5422 C   0  0  0  0  0  0  0  0  0  0  0  0
  -20.3560    1.3644  -34.6119 C   0  0  0  0  0  0  0  0  0  0  0  0
  2  3  2  0
  3  4  1  0
  4  5  2  0
  5  6  1  0
  6  7  2  0
  7  8  1  0
  8  9  2  0
  9 10  1  0
 10 11  1  1
 11 12  1  0
 12 13  1  0
 10 14  1  0
 14 15  1  0
 16 15  1  1
 16 17  1  0
 17 18  1  0
 18 19  1  0
 19 20  1  0
 20 21  1  0
 21 22  1  0
 22 23  1  0
 15  3  1  0
 21 16  1  0
  9  4  1  0
 23 18  1  0
 13  8  1  0
M  END
$$$$
