
     RDKit          3D

 20 20  0  0  0  0  0  0  0  0999 V2000
  -12.0620   -0.5109  -35.1068 O   0  0  0  0  0  0  0  0  0  0  0  0
  -12.1051   -1.3611  -34.1920 C   0  0  0  0  0  0  0  0  0  0  0  0
  -11.3028   -2.4802  -34.2984 O   0  0  0  0  0  1  0  0  0  0  0  0
  -12.9835   -1.1695  -33.0430 C   0  0  0  0  0  0  0  0  0  0  0  0
  -12.6877    0.1034  -32.2996 C   0  0  0  0  0  0  0  0  0  0  0  0
  -11.5868    0.8700  -32.6322 C   0  0  0  0  0  0  0  0  0  0  0  0
  -11.2609    2.0406  -31.9871 C   0  0  0  0  0  0  0  0  0  0  0  0
  -12.0895    2.4437  -30.9640 C   0  0  0  0  0  0  0  0  0  0  0  0
  -13.1857    1.7158  -30.6045 C   0  0  0  0  0  0  0  0  0  0  0  0
  -13.4953    0.5190  -31.2842 C   0  0  0  0  0  0  0  0  0  0  0  0
  -14.6455   -0.1604  -30.8314 N   0  0  0  0  0  0  0  0  0  0  0  0
  -15.8050   -0.4783  -31.5471 C   0  0  0  0  0  0  0  0  0  0  0  0
  -16.2423   -1.7763  -31.7719 C   0  0  0  0  0  0  0  0  0  0  0  0
  -15.3505   -3.1294  -31.1014 Cl  0  0  0  0  0  0  0  0  0  0  0  0
  -17.3836   -2.0651  -32.5002 C   0  0  0  0  0  0  0  0  0  0  0  0
  -18.1403   -1.0436  -33.0379 C   0  0  0  0  0  0  0  0  0  0  0  0
  -17.7133    0.2380  -32.8184 C   0  0  0  0  0  0  0  0  0  0  0  0
  -16.5835    0.5517  -32.0990 C   0  0  0  0  0  0  0  0  0  0  0  0
  -16.0844    2.2121  -31.8492 Cl  0  0  0  0  0  0  0  0  0  0  0  0
  -14.2883   -0.0624  -32.2378 Na  0  0  0  0  0 15  0  0  0  0  0  0
  1  2  2  0
  2  3  1  0
  2  4  1  0
  4  5  1  0
  5  6  2  0
  6  7  1  0
  7  8  2  0
  8  9  1  0
  9 10  2  0
 10 11  1  0
 11 12  1  0
 12 13  2  0
 13 14  1  0
 13 15  1  0
 15 16  2  0
 16 17  1  0
 17 18  2  0
 18 19  1  0
 10  5  1  0
 18 12  1  0
M  CHG  2   3  -1  20   1
M  END
$$$$
