
     RDKit          3D

 27 29  0  0  0  0  0  0  0  0999 V2000
  -24.0924   14.3401  -36.5940 C   0  0  0  0  0  0  0  0  0  0  0  0
  -24.1472   14.9991  -35.3449 O   0  0  0  0  0  0  0  0  0  0  0  0
  -22.9965   15.4909  -34.7538 C   0  0  0  0  0  0  0  0  0  0  0  0
  -22.9381   16.7569  -34.2137 C   0  0  0  0  0  0  0  0  0  0  0  0
  -21.7970   17.2563  -33.6234 C   0  0  0  0  0  0  0  0  0  0  0  0
  -20.6364   16.4769  -33.5523 C   0  0  0  0  0  0  0  0  0  0  0  0
  -19.4391   17.0297  -32.9185 C   0  0  0  0  0  0  0  0  0  0  0  0
  -19.3217   16.9822  -31.6719 O   0  0  0  0  0  0  0  0  0  0  0  0
  -18.4173   17.6201  -33.7377 N   0  0  0  0  0  0  0  0  0  0  0  0
  -18.7366   18.2157  -35.0116 C   0  0  0  0  0  0  0  0  0  0  0  0
  -17.7679   17.9598  -36.0988 C   0  0  0  0  0  0  0  0  0  0  0  0
  -16.4156   17.6906  -35.6793 N   0  0  0  0  0  0  0  0  0  0  0  0
  -15.3434   17.9174  -36.6291 C   0  0  0  0  0  0  0  0  0  0  0  0
  -15.6083   17.8283  -37.8752 O   0  0  0  0  0  0  0  0  0  0  0  0
  -14.0151   18.2326  -36.1591 C   0  0  0  0  0  0  0  0  0  0  0  0
  -13.0708   18.7006  -36.9665 C   0  0  0  0  0  0  0  0  0  0  0  0
  -12.4379   17.9499  -38.0440 C   0  0  0  0  0  0  0  0  0  0  0  0
  -12.1425   16.6207  -37.9307 C   0  0  0  0  0  0  0  0  0  0  0  0
  -11.5439   15.9549  -38.9655 C   0  0  0  0  0  0  0  0  0  0  0  0
  -11.2071   16.5576  -40.1576 C   0  0  0  0  0  0  0  0  0  0  0  0
  -10.3727   15.5942  -41.5754 Br  0  0  0  0  0  0  0  0  0  0  0  0
  -11.5035   17.9100  -40.2837 C   0  0  0  0  0  0  0  0  0  0  0  0
  -12.1037   18.5665  -39.2385 C   0  0  0  0  0  0  0  0  0  0  0  0
  -16.0750   17.2131  -34.3762 C   0  0  0  0  0  0  0  0  0  0  0  0
  -17.0448   17.6478  -33.3145 C   0  0  0  0  0  0  0  0  0  0  0  0
  -20.6987   15.2129  -34.0929 C   0  0  0  0  0  0  0  0  0  0  0  0
  -21.8496   14.7313  -34.6792 C   0  0  0  0  0  0  0  0  0  0  0  0
  1  2  1  0
  2  3  1  0
  3  4  2  0
  4  5  1  0
  5  6  2  0
  6  7  1  0
  7  8  2  0
  7  9  1  0
  9 10  1  0
 10 11  1  0
 11 12  1  0
 12 13  1  0
 13 14  2  0
 13 15  1  0
 15 16  2  0
 16 17  1  0
 17 18  2  0
 18 19  1  0
 19 20  2  0
 20 21  1  0
 20 22  1  0
 22 23  2  0
 12 24  1  0
 24 25  1  0
  6 26  1  0
 26 27  2  0
 27  3  1  0
 25  9  1  0
 23 17  1  0
M  END
$$$$
