
     RDKit          3D

 20 22  0  0  0  0  0  0  0  0999 V2000
    3.5681   22.8332  -17.9918 O   0  0  0  0  0  0  0  0  0  0  0  0
    2.8753   22.7496  -19.0537 C   0  0  0  0  0  0  0  0  0  0  0  0
    2.4601   21.5272  -19.5623 C   0  0  0  0  0  0  0  0  0  0  0  0
    1.7133   21.5148  -20.7155 C   0  0  0  0  0  0  0  0  0  0  0  0
    1.2337   20.2985  -21.3242 C   0  0  0  0  0  0  0  0  0  0  0  0
    0.3840   20.3869  -22.4329 C   0  0  0  0  0  0  0  0  0  0  0  0
   -0.0713   19.2268  -23.0107 C   0  0  0  0  0  0  0  0  0  0  0  0
    0.2695   17.9662  -22.5495 C   0  0  0  0  0  0  0  0  0  0  0  0
   -0.2287   16.7968  -23.1830 N   0  0  0  0  0  4  0  0  0  0  0  0
   -0.8423   16.8979  -24.2595 O   0  0  0  0  0  0  0  0  0  0  0  0
   -0.0415   15.5607  -22.6232 O   0  0  0  0  0  1  0  0  0  0  0  0
    1.1070   17.9197  -21.4572 C   0  0  0  0  0  0  0  0  0  0  0  0
    1.5947   19.0760  -20.8371 C   0  0  0  0  0  0  0  0  0  0  0  0
    1.4077   22.6659  -21.3134 O   0  0  0  0  0  0  0  0  0  0  0  0
    1.7776   23.8332  -20.8691 C   0  0  0  0  0  0  0  0  0  0  0  0
    1.4155   24.9973  -21.5559 C   0  0  0  0  0  0  0  0  0  0  0  0
    1.7952   26.2401  -21.1046 C   0  0  0  0  0  0  0  0  0  0  0  0
    2.5451   26.3117  -19.9530 C   0  0  0  0  0  0  0  0  0  0  0  0
    2.8966   25.1631  -19.2842 C   0  0  0  0  0  0  0  0  0  0  0  0
    2.5291   23.9056  -19.7151 C   0  0  0  0  0  0  0  0  0  0  0  0
  1  2  2  0
  2  3  1  0
  3  4  2  0
  4  5  1  0
  5  6  2  0
  6  7  1  0
  7  8  2  0
  8  9  1  0
  9 10  2  0
  9 11  1  0
  8 12  1  0
 12 13  2  0
  4 14  1  0
 14 15  1  0
 15 16  2  0
 16 17  1  0
 17 18  2  0
 18 19  1  0
 19 20  2  0
 20  2  1  0
 13  5  1  0
 20 15  1  0
M  CHG  2   9   1  11  -1
M  END
$$$$
