
     RDKit          3D

 26 29  0  0  0  0  0  0  0  0999 V2000
  -17.2211   17.8558  -39.9440 C   0  0  0  0  0  0  0  0  0  0  0  0
  -16.0452   18.2700  -40.7508 C   0  0  0  0  0  0  0  0  0  0  0  0
  -16.2632   19.0821  -41.8222 C   0  0  0  0  0  0  0  0  0  0  0  0
  -15.1976   19.4655  -42.5685 C   0  0  0  0  0  0  0  0  0  0  0  0
  -15.3913   20.3128  -43.6933 O   0  0  0  0  0  0  0  0  0  0  0  0
  -13.8990   19.0286  -42.2351 C   0  0  0  0  0  0  0  0  0  0  0  0
  -12.9234   19.5499  -43.1621 C   0  0  0  0  0  0  0  0  0  0  0  0
  -12.1696   20.6826  -42.9753 C   0  0  0  0  0  0  0  0  0  0  0  0
  -11.2075   21.0777  -43.8626 C   0  0  0  0  0  0  0  0  0  0  0  0
  -10.9676   20.3277  -44.9930 C   0  0  0  0  0  0  0  0  0  0  0  0
   -9.9242   20.7761  -45.9318 C   0  0  1  0  0  0  0  0  0  0  0  0
   -9.4281   19.6471  -46.7890 C   0  0  0  0  0  0  0  0  0  0  0  0
  -10.3846   21.9146  -46.8289 C   0  0  0  0  0  0  0  0  0  0  0  0
   -9.3331   22.4745  -47.6266 N   0  0  0  0  0  0  0  0  0  0  0  0
  -11.7074   19.1906  -45.2038 C   0  0  0  0  0  0  0  0  0  0  0  0
  -12.6777   18.7907  -44.3104 C   0  0  0  0  0  0  0  0  0  0  0  0
  -13.6768   18.2218  -41.1707 C   0  0  0  0  0  0  0  0  0  0  0  0
  -14.7653   17.8266  -40.4038 C   0  0  0  0  0  0  0  0  0  0  0  0
  -14.7267   17.0469  -39.3379 N   0  0  0  0  0  0  0  0  0  0  0  0
  -13.5298   16.5858  -38.9476 C   0  0  0  0  0  0  0  0  0  0  0  0
  -13.3895   15.8399  -37.9494 O   0  0  0  0  0  0  0  0  0  0  0  0
  -12.4197   16.9548  -39.6823 C   0  0  0  0  0  0  0  0  0  0  0  0
  -10.7058   16.5191  -39.4275 S   0  0  0  0  0  0  0  0  0  0  0  0
  -10.0610   17.4209  -40.7985 C   0  0  0  0  0  0  0  0  0  0  0  0
  -11.2134   18.0000  -41.3637 C   0  0  0  0  0  0  0  0  0  0  0  0
  -12.3854   17.7496  -40.7836 C   0  0  0  0  0  0  0  0  0  0  0  0
  1  2  1  0
  2  3  2  0
  3  4  1  0
  4  5  1  0
  4  6  2  0
  6  7  1  0
  7  8  2  0
  8  9  1  0
  9 10  2  0
 10 11  1  0
 11 12  1  6
 11 13  1  0
 13 14  1  0
 10 15  1  0
 15 16  2  0
  6 17  1  0
 17 18  2  0
 18 19  1  0
 19 20  1  0
 20 21  2  0
 20 22  1  0
 22 23  1  0
 23 24  1  0
 24 25  2  0
 25 26  1  0
 18  2  1  0
 26 22  2  0
 16  7  1  0
 26 17  1  0
M  END
$$$$
