
     RDKit          3D

 24 27  0  0  0  0  0  0  0  0999 V2000
  -23.6749   21.2955  -38.7306 C   0  0  0  0  0  0  0  0  0  0  0  0
  -22.6326   20.5208  -39.2442 O   0  0  0  0  0  0  0  0  0  0  0  0
  -21.7237   19.9314  -38.3899 C   0  0  0  0  0  0  0  0  0  0  0  0
  -22.1155   18.9692  -37.4938 C   0  0  0  0  0  0  0  0  0  0  0  0
  -21.2231   18.3874  -36.6519 C   0  0  0  0  0  0  0  0  0  0  0  0
  -19.8673   18.7272  -36.6446 C   0  0  0  0  0  0  0  0  0  0  0  0
  -18.9930   18.0599  -35.7186 C   0  0  0  0  0  0  0  0  0  0  0  0
  -19.3601   17.8596  -34.5326 O   0  0  0  0  0  0  0  0  0  0  0  0
  -17.7030   17.6027  -36.0801 N   0  0  0  0  0  0  0  0  0  0  0  0
  -16.8404   16.9870  -35.0795 C   0  0  0  0  0  0  0  0  0  0  0  0
  -15.7718   16.6438  -34.8386 N   0  0  0  0  0  0  0  0  0  0  0  0
  -15.2598   16.0803  -33.7735 C   0  0  0  0  0  0  0  0  0  0  0  0
  -13.9667   15.6481  -33.4417 C   0  0  0  0  0  0  0  0  0  0  0  0
  -13.6494   15.0788  -32.2578 C   0  0  0  0  0  0  0  0  0  0  0  0
  -14.6063   14.8705  -31.2463 C   0  0  0  0  0  0  0  0  0  0  0  0
  -14.5043   14.3458  -30.0525 N   0  0  0  0  0  0  0  0  0  0  0  0
  -15.2838   14.1779  -29.2327 C   0  0  0  0  0  0  0  0  0  0  0  0
  -15.4483   13.6398  -27.8632 C   0  0  0  0  0  0  0  0  0  0  0  0
  -16.8116   14.8934  -30.1121 S   0  0  0  0  0  0  0  0  0  0  0  0
  -15.8860   15.2984  -31.5749 C   0  0  0  0  0  0  0  0  0  0  0  0
  -16.1999   15.8657  -32.7560 C   0  0  0  0  0  0  0  0  0  0  0  0
  -17.7004   16.4992  -33.4550 S   0  0  0  0  0  0  0  0  0  0  0  0
  -19.4728   19.6844  -37.5347 C   0  0  0  0  0  0  0  0  0  0  0  0
  -20.3887   20.2711  -38.3881 C   0  0  0  0  0  0  0  0  0  0  0  0
  1  2  1  0
  2  3  1  0
  3  4  2  0
  4  5  1  0
  5  6  2  0
  6  7  1  0
  7  8  2  0
  7  9  1  0
  9 10  1  0
 10 11  2  0
 11 12  1  0
 12 13  2  0
 13 14  1  0
 14 15  2  0
 15 16  1  0
 16 17  2  0
 17 18  1  0
 17 19  1  0
 19 20  1  0
 20 21  2  0
 21 22  1  0
  6 23  1  0
 23 24  2  0
 24  3  1  0
 22 10  1  0
 21 12  1  0
 20 15  1  0
M  END
$$$$
