
     RDKit          3D

 28 31  0  0  0  0  0  0  0  0999 V2000
  -20.3413   31.5469  -22.1775 C   0  0  0  0  0  0  0  0  0  0  0  0
  -19.2382   32.5340  -21.8721 C   0  0  0  0  0  0  0  0  0  0  0  0
  -18.5419   32.0472  -20.6129 C   0  0  0  0  0  0  0  0  0  0  0  0
  -19.8049   33.9046  -21.5735 C   0  0  0  0  0  0  0  0  0  0  0  0
  -19.4500   34.8523  -22.6968 C   0  0  0  0  0  0  0  0  0  0  0  0
  -20.3970   36.0720  -22.6729 C   0  0  0  0  0  0  0  0  0  0  0  0
  -20.0839   36.9895  -23.8215 C   0  0  0  0  0  0  0  0  0  0  0  0
  -20.9509   36.7210  -25.0300 C   0  0  0  0  0  0  0  0  0  0  0  0
  -19.8535   38.4116  -23.5047 C   0  0  0  0  0  0  0  0  0  0  0  0
  -20.6432   38.6893  -22.2108 C   0  0  0  0  0  0  0  0  0  0  0  0
  -19.6644   39.2057  -21.2020 C   0  0  0  0  0  0  0  0  0  0  0  0
  -18.3289   39.2633  -21.8404 C   0  0  0  0  0  0  0  0  0  0  0  0
  -17.5039   40.4721  -21.5540 C   0  0  0  0  0  0  0  0  0  0  0  0
  -17.4817   40.6372  -20.0414 C   0  0  0  0  0  0  0  0  0  0  0  0
  -16.8510   41.9134  -19.6658 C   0  0  0  0  0  0  0  0  0  0  0  0
  -17.2022   42.9950  -20.3502 C   0  0  0  0  0  0  0  0  0  0  0  0
  -16.5636   44.2878  -19.9700 C   0  0  0  0  0  0  0  0  0  0  0  0
  -17.4799   45.4592  -20.2254 C   0  0  0  0  0  0  0  0  0  0  0  0
  -16.7534   46.6270  -20.0000 O   0  0  0  0  0  0  0  0  0  0  0  0
  -18.0992   45.4287  -21.5929 C   0  0  0  0  0  0  0  0  0  0  0  0
  -17.9499   44.1477  -22.3236 C   0  0  0  0  0  0  0  0  0  0  0  0
  -18.1975   42.9073  -21.4532 C   0  0  0  0  0  0  0  0  0  0  0  0
  -19.5870   43.0167  -20.9462 C   0  0  0  0  0  0  0  0  0  0  0  0
  -17.8830   41.7100  -22.2890 C   0  0  0  0  0  0  0  0  0  0  0  0
  -18.9318   41.4211  -23.3430 C   0  0  0  0  0  0  0  0  0  0  0  0
  -18.3931   40.2534  -24.1433 C   0  0  0  0  0  0  0  0  0  0  0  0
  -18.5149   38.9563  -23.3169 C   0  0  0  0  0  0  0  0  0  0  0  0
  -17.3254   38.1575  -23.7503 C   0  0  0  0  0  0  0  0  0  0  0  0
  1  2  1  0
  2  3  1  0
  2  4  1  0
  4  5  1  0
  5  6  1  0
  6  7  1  0
  7  8  1  0
  7  9  1  0
  9 10  1  0
 10 11  1  0
 11 12  1  0
 12 13  1  0
 13 14  1  0
 14 15  1  0
 15 16  2  0
 16 17  1  0
 17 18  1  0
 18 19  1  0
 18 20  1  0
 20 21  1  0
 21 22  1  0
 22 23  1  0
 22 24  1  0
 24 25  1  0
 25 26  1  0
 26 27  1  0
 27 28  1  0
 27  9  1  0
 27 12  1  0
 24 13  1  0
 22 16  1  0
M  END
$$$$
