
     RDKit          3D

 31 33  0  0  0  0  0  0  0  0999 V2000
  -19.4741   18.1151  -35.5557 C   0  0  0  0  0  0  0  0  0  0  0  0
  -20.5706   17.5666  -36.4222 C   0  0  0  0  0  0  0  0  0  0  0  0
  -20.9535   16.1864  -35.9202 C   0  0  0  0  0  0  0  0  0  0  0  0
  -21.7190   18.4629  -36.4766 N   0  0  0  0  0  0  0  0  0  0  0  0
  -22.7866   18.3108  -35.5488 C   0  0  0  0  0  0  0  0  0  0  0  0
  -22.5083   19.0962  -34.2870 C   0  0  0  0  0  0  0  0  0  0  0  0
  -23.6132   18.8779  -33.2766 C   0  0  0  0  0  0  0  0  0  0  0  0
  -23.2877   19.5297  -31.9751 C   0  0  0  0  0  0  0  0  0  0  0  0
  -24.3560   20.2601  -31.5059 O   0  0  0  0  0  0  0  0  0  0  0  0
  -24.0488   21.3865  -30.7972 C   0  0  0  0  0  0  0  0  0  0  0  0
  -24.2444   22.5719  -31.6998 C   0  0  0  0  0  0  0  0  0  0  0  0
  -23.8413   23.6878  -31.3322 O   0  0  0  0  0  0  0  0  0  0  0  0
  -24.8650   22.4358  -32.9260 O   0  0  0  0  0  0  0  0  0  0  0  0
  -21.7132   19.4395  -37.4736 C   0  0  0  0  0  0  0  0  0  0  0  0
  -21.2070   19.1785  -38.7127 C   0  0  0  0  0  0  0  0  0  0  0  0
  -21.2552   20.1583  -39.6425 N   0  0  0  0  0  0  0  0  0  0  0  0
  -21.7813   21.3794  -39.3974 C   0  0  0  0  0  0  0  0  0  0  0  0
  -21.8917   22.4079  -40.3913 C   0  0  0  0  0  0  0  0  0  0  0  0
  -21.0010   23.4590  -40.3902 C   0  0  0  0  0  0  0  0  0  0  0  0
  -21.0971   24.4734  -41.3530 C   0  0  0  0  0  0  0  0  0  0  0  0
  -22.0807   24.4327  -42.3086 C   0  0  0  0  0  0  0  0  0  0  0  0
  -22.9690   23.3869  -42.3103 C   0  0  0  0  0  0  0  0  0  0  0  0
  -22.8546   22.3900  -41.3456 C   0  0  0  0  0  0  0  0  0  0  0  0
  -22.2900   21.6419  -38.1427 C   0  0  0  0  0  0  0  0  0  0  0  0
  -22.8390   22.9488  -37.8752 C   0  0  0  0  0  0  0  0  0  0  0  0
  -24.0406   23.3902  -38.3764 C   0  0  0  0  0  0  0  0  0  0  0  0
  -24.5727   24.6253  -38.1472 C   0  0  0  0  0  0  0  0  0  0  0  0
  -23.8613   25.5175  -37.3486 C   0  0  0  0  0  0  0  0  0  0  0  0
  -22.6628   25.1127  -36.8336 C   0  0  0  0  0  0  0  0  0  0  0  0
  -22.1534   23.8514  -37.0876 C   0  0  0  0  0  0  0  0  0  0  0  0
  -22.2398   20.6651  -37.2231 N   0  0  0  0  0  0  0  0  0  0  0  0
  1  2  1  0
  2  3  1  0
  2  4  1  0
  4  5  1  0
  5  6  1  0
  6  7  1  0
  7  8  1  0
  8  9  1  0
  9 10  1  0
 10 11  1  0
 11 12  2  0
 11 13  1  0
  4 14  1  0
 14 15  2  0
 15 16  1  0
 16 17  2  0
 17 18  1  0
 18 19  2  0
 19 20  1  0
 20 21  2  0
 21 22  1  0
 22 23  2  0
 17 24  1  0
 24 25  1  0
 25 26  2  0
 26 27  1  0
 27 28  2  0
 28 29  1  0
 29 30  2  0
 24 31  2  0
 31 14  1  0
 23 18  1  0
 30 25  1  0
M  END
$$$$
