
     RDKit          3D

 29 31  0  0  0  0  0  0  0  0999 V2000
  -17.8471   -4.6235  -30.1200 C   0  0  0  0  0  0  0  0  0  0  0  0
  -17.1936   -3.4363  -29.8037 O   0  0  0  0  0  0  0  0  0  0  0  0
  -16.6802   -2.8318  -30.8874 N   0  0  0  0  0  0  0  0  0  0  0  0
  -17.5717   -2.3162  -31.8861 C   0  0  0  0  0  0  0  0  0  0  0  0
  -15.2674   -2.7263  -31.0025 C   0  0  0  0  0  0  0  0  0  0  0  0
  -14.6354   -3.5381  -30.3021 O   0  0  0  0  0  0  0  0  0  0  0  0
  -14.6203   -1.7817  -31.8367 N   0  0  0  0  0  0  0  0  0  0  0  0
  -15.3810   -0.6557  -32.3157 N   0  0  0  0  0  0  0  0  0  0  0  0
  -15.2395   -0.3896  -33.5573 C   0  0  0  0  0  0  0  0  0  0  0  0
  -15.8324    0.6281  -34.3502 C   0  0  0  0  0  0  0  0  0  0  0  0
  -15.1470    1.3882  -35.2891 C   0  0  0  0  0  0  0  0  0  0  0  0
  -15.7600    2.3681  -36.0405 C   0  0  0  0  0  0  0  0  0  0  0  0
  -15.0694    3.0999  -36.9542 F   0  0  0  0  0  0  0  0  0  0  0  0
  -17.1070    2.6302  -35.8786 C   0  0  0  0  0  0  0  0  0  0  0  0
  -17.8165    1.8970  -34.9580 C   0  0  0  0  0  0  0  0  0  0  0  0
  -17.1913    0.9224  -34.2154 C   0  0  0  0  0  0  0  0  0  0  0  0
  -17.9556    0.2288  -33.3169 F   0  0  0  0  0  0  0  0  0  0  0  0
  -13.9833   -1.5872  -34.1483 S   0  0  0  0  0  0  0  0  0  0  0  0
  -13.3069   -1.6698  -32.4068 C   0  0  2  0  0  0  0  0  0  0  0  0
  -12.1879   -2.5209  -32.2124 C   0  0  0  0  0  0  0  0  0  0  0  0
  -12.1277   -3.9448  -32.5167 C   0  0  0  0  0  0  0  0  0  0  0  0
  -11.4007   -4.5718  -33.6017 C   0  0  0  0  0  0  0  0  0  0  0  0
  -11.1341   -5.9693  -33.1642 N   0  0  0  0  0  0  0  0  0  0  0  0
  -12.8740   -0.2063  -32.2099 C   0  0  0  0  0  0  0  0  0  0  0  0
  -12.0022    0.3185  -33.1021 C   0  0  0  0  0  0  0  0  0  0  0  0
  -11.5999    1.6615  -32.9203 C   0  0  0  0  0  0  0  0  0  0  0  0
  -12.1102    2.3770  -31.8469 C   0  0  0  0  0  0  0  0  0  0  0  0
  -12.9948    1.8381  -30.9452 C   0  0  0  0  0  0  0  0  0  0  0  0
  -13.3739    0.4972  -31.1571 C   0  0  0  0  0  0  0  0  0  0  0  0
  1  2  1  0
  2  3  1  0
  3  4  1  0
  3  5  1  0
  5  6  2  0
  5  7  1  0
  7  8  1  0
  8  9  2  0
  9 10  1  0
 10 11  2  0
 11 12  1  0
 12 13  1  0
 12 14  2  0
 14 15  1  0
 15 16  2  0
 16 17  1  0
  9 18  1  0
 18 19  1  0
 19 20  1  6
 20 21  1  0
 21 22  1  0
 22 23  1  0
 19 24  1  0
 24 25  2  0
 25 26  1  0
 26 27  2  0
 27 28  1  0
 28 29  2  0
 19  7  1  0
 29 24  1  0
 16 10  1  0
M  END
$$$$
