
     RDKit          3D

 29 30  0  0  0  0  0  0  0  0999 V2000
  -36.8458   14.2464  -23.6587 C   0  0  0  0  0  0  0  0  0  0  0  0
  -36.0807   13.3697  -22.7549 C   0  0  0  0  0  0  0  0  0  0  0  0
  -34.6896   13.0420  -23.1199 C   0  0  0  0  0  0  0  0  0  0  0  0
  -33.7205   14.1493  -23.2397 C   0  0  0  0  0  0  0  0  0  0  0  0
  -33.9261   15.1608  -24.3093 C   0  0  0  0  0  0  0  0  0  0  0  0
  -33.8569   14.5637  -25.7025 C   0  0  2  0  0  0  0  0  0  0  0  0
  -32.6051   13.9856  -25.9379 O   0  0  0  0  0  0  0  0  0  0  0  0
  -34.2105   15.5295  -26.7751 C   0  0  0  0  0  0  0  0  0  0  0  0
  -33.3657   16.7478  -26.8690 C   0  0  0  0  0  0  0  0  0  0  0  0
  -31.9162   16.5365  -27.1236 C   0  0  2  0  0  0  0  0  0  0  0  0
  -31.2760   17.9334  -27.1802 C   0  0  1  0  0  0  0  0  0  0  0  0
  -29.9684   17.9616  -26.4573 C   0  0  0  0  0  0  0  0  0  0  0  0
  -29.2623   19.2107  -26.8409 C   0  0  0  0  0  0  0  0  0  0  0  0
  -28.7004   20.0476  -25.9012 C   0  0  0  0  0  0  0  0  0  0  0  0
  -28.0637   21.1817  -26.3069 C   0  0  0  0  0  0  0  0  0  0  0  0
  -27.9872   21.4828  -27.6589 C   0  0  0  0  0  0  0  0  0  0  0  0
  -28.5352   20.6724  -28.6248 C   0  0  0  0  0  0  0  0  0  0  0  0
  -28.4601   20.9715  -29.9702 O   0  0  0  0  0  0  0  0  0  0  0  0
  -27.8499   22.0725  -30.5540 C   0  0  0  0  0  0  0  0  0  0  0  0
  -26.4106   22.2023  -30.3187 C   0  0  0  0  0  0  0  0  0  0  0  0
  -25.8337   23.2114  -30.8198 O   0  0  0  0  0  0  0  0  0  0  0  0
  -25.6211   21.3301  -29.6037 O   0  0  0  0  0  1  0  0  0  0  0  0
  -29.1750   19.5297  -28.1915 C   0  0  0  0  0  0  0  0  0  0  0  0
  -29.8102   18.5678  -29.1300 C   0  0  0  0  0  0  0  0  0  0  0  0
  -31.2087   18.3015  -28.6229 C   0  0  1  0  0  0  0  0  0  0  0  0
  -31.8015   17.1509  -29.4163 C   0  0  0  0  0  0  0  0  0  0  0  0
  -31.5809   15.9854  -28.4658 C   0  0  1  0  0  0  0  0  0  0  0  0
  -30.2712   15.5344  -28.4890 O   0  0  0  0  0  0  0  0  0  0  0  0
  -31.7262   17.2128  -26.6785 Na  0  0  0  0  0 15  0  0  0  0  0  0
  1  2  1  0
  2  3  1  0
  3  4  1  0
  4  5  1  0
  5  6  1  0
  6  7  1  6
  6  8  1  0
  8  9  1  0
 10  9  1  6
 10 11  1  0
 11 12  1  6
 12 13  1  0
 13 14  2  0
 14 15  1  0
 15 16  2  0
 16 17  1  0
 17 18  1  0
 18 19  1  0
 19 20  1  0
 20 21  2  0
 20 22  1  0
 17 23  2  0
 23 24  1  0
 25 24  1  6
 25 26  1  0
 26 27  1  0
 27 28  1  1
 27 10  1  0
 25 11  1  0
 23 13  1  0
M  CHG  2  22  -1  29   1
M  END
$$$$
