
     RDKit          3D

 25 26  0  0  0  0  0  0  0  0999 V2000
  -36.2100   14.4271  -23.4358 C   0  0  0  0  0  0  0  0  0  0  0  0
  -35.3436   14.9529  -24.4151 O   0  0  0  0  0  0  0  0  0  0  0  0
  -33.9763   14.7571  -24.3857 C   0  0  0  0  0  0  0  0  0  0  0  0
  -33.1116   15.6775  -24.9036 C   0  0  0  0  0  0  0  0  0  0  0  0
  -31.7279   15.5328  -24.9016 C   0  0  0  0  0  0  0  0  0  0  0  0
  -30.9316   16.5844  -25.4783 C   0  0  0  0  0  0  0  0  0  0  0  0
  -29.8343   16.4032  -26.2003 C   0  0  0  0  0  0  0  0  0  0  0  0
  -29.1930   17.4963  -26.9011 C   0  0  0  0  0  0  0  0  0  0  0  0
  -29.7363   18.6107  -26.9545 O   0  0  0  0  0  0  0  0  0  0  0  0
  -27.8876   17.2848  -27.5560 C   0  0  0  0  0  0  0  0  0  0  0  0
  -27.0757   18.5242  -27.6110 C   0  0  0  0  0  0  0  0  0  0  0  0
  -27.1332   19.3446  -26.6256 O   0  0  0  0  0  0  0  0  0  0  0  0
  -26.1996   18.8976  -28.7094 C   0  0  0  0  0  0  0  0  0  0  0  0
  -25.5611   20.0405  -28.8255 C   0  0  0  0  0  0  0  0  0  0  0  0
  -24.5205   20.3319  -29.7962 C   0  0  0  0  0  0  0  0  0  0  0  0
  -23.5460   21.2818  -29.5079 C   0  0  0  0  0  0  0  0  0  0  0  0
  -22.5598   21.5675  -30.4158 C   0  0  0  0  0  0  0  0  0  0  0  0
  -22.5006   20.9286  -31.6350 C   0  0  0  0  0  0  0  0  0  0  0  0
  -21.4960   21.2217  -32.5557 O   0  0  0  0  0  0  0  0  0  0  0  0
  -23.4423   19.9973  -31.9381 C   0  0  0  0  0  0  0  0  0  0  0  0
  -24.4327   19.7171  -31.0151 C   0  0  0  0  0  0  0  0  0  0  0  0
  -31.2205   14.4027  -24.3484 C   0  0  0  0  0  0  0  0  0  0  0  0
  -32.0695   13.4417  -23.8106 C   0  0  0  0  0  0  0  0  0  0  0  0
  -33.4377   13.5986  -23.8190 C   0  0  0  0  0  0  0  0  0  0  0  0
  -34.3317   12.6922  -23.3063 O   0  0  0  0  0  0  0  0  0  0  0  0
  1  2  1  0
  2  3  1  0
  3  4  2  0
  4  5  1  0
  5  6  1  0
  6  7  2  0
  7  8  1  0
  8  9  2  0
  8 10  1  0
 10 11  1  0
 11 12  2  0
 11 13  1  0
 13 14  2  0
 14 15  1  0
 15 16  2  0
 16 17  1  0
 17 18  2  0
 18 19  1  0
 18 20  1  0
 20 21  2  0
  5 22  2  0
 22 23  1  0
 23 24  2  0
 24 25  1  0
 24  3  1  0
 21 15  1  0
M  END
$$$$
