
     RDKit          3D

 26 27  0  0  0  0  0  0  0  0999 V2000
  -23.4601   15.6681  -36.4376 C   0  0  0  0  0  0  0  0  0  0  0  0
  -22.7183   16.9654  -36.6266 C   0  0  0  0  0  0  0  0  0  0  0  0
  -22.9073   17.4291  -38.0300 C   0  0  0  0  0  0  0  0  0  0  0  0
  -21.2416   16.6909  -36.3247 C   0  0  2  0  0  0  0  0  0  0  0  0
  -20.7911   15.7194  -37.1678 O   0  0  0  0  0  0  0  0  0  0  0  0
  -21.0818   16.3612  -34.8888 C   0  0  0  0  0  0  0  0  0  0  0  0
  -21.2949   17.2466  -34.0112 O   0  0  0  0  0  0  0  0  0  0  0  0
  -20.6954   15.0897  -34.3913 N   0  0  0  0  0  0  0  0  0  0  0  0
  -20.5703   14.8057  -32.9963 C   0  0  1  0  0  0  0  0  0  0  0  0
  -20.8095   13.2993  -32.8279 C   0  0  0  0  0  0  0  0  0  0  0  0
  -19.3182   15.2342  -32.3815 C   0  0  0  0  0  0  0  0  0  0  0  0
  -19.2199   15.0884  -31.1208 O   0  0  0  0  0  0  0  0  0  0  0  0
  -18.2124   15.7911  -33.0473 N   0  0  0  0  0  0  0  0  0  0  0  0
  -17.0484   16.3890  -32.4239 C   0  0  2  0  0  0  0  0  0  0  0  0
  -16.9411   17.7552  -32.9825 C   0  0  0  0  0  0  0  0  0  0  0  0
  -17.5514   18.6296  -32.3148 O   0  0  0  0  0  0  0  0  0  0  0  0
  -16.2681   18.2279  -34.1364 N   0  0  0  0  0  0  0  0  0  0  0  0
  -16.6341   19.5148  -34.6497 C   0  0  0  0  0  0  0  0  0  0  0  0
  -15.2445   17.5259  -34.8430 C   0  0  0  0  0  0  0  0  0  0  0  0
  -14.1753   17.1096  -33.8856 C   0  0  0  0  0  0  0  0  0  0  0  0
  -14.6449   15.8642  -33.1810 C   0  0  0  0  0  0  0  0  0  0  0  0
  -13.6471   14.9104  -33.1855 C   0  0  0  0  0  0  0  0  0  0  0  0
  -13.8253   13.6925  -32.6031 C   0  0  0  0  0  0  0  0  0  0  0  0
  -15.0491   13.4075  -31.9884 C   0  0  0  0  0  0  0  0  0  0  0  0
  -16.0376   14.3603  -31.9869 C   0  0  0  0  0  0  0  0  0  0  0  0
  -15.8344   15.5716  -32.5766 C   0  0  0  0  0  0  0  0  0  0  0  0
  1  2  1  0
  2  3  1  0
  2  4  1  0
  4  5  1  6
  4  6  1  0
  6  7  2  0
  6  8  1  0
  8  9  1  0
  9 10  1  6
  9 11  1  0
 11 12  2  0
 11 13  1  0
 14 13  1  6
 14 15  1  0
 15 16  2  0
 15 17  1  0
 17 18  1  0
 17 19  1  0
 19 20  1  0
 20 21  1  0
 21 22  2  0
 22 23  1  0
 23 24  2  0
 24 25  1  0
 25 26  2  0
 26 14  1  0
 26 21  1  0
M  END
$$$$
