
     RDKit          3D

 31 33  0  0  0  0  0  0  0  0999 V2000
  -27.0785    2.0326  -27.0015 C   0  0  0  0  0  0  0  0  0  0  0  0
  -26.1971    2.4216  -28.1674 C   0  0  0  0  0  0  0  0  0  0  0  0
  -24.8790    1.9500  -27.9657 O   0  0  0  0  0  0  0  0  0  0  0  0
  -23.8795    2.1719  -28.9049 C   0  0  0  0  0  0  0  0  0  0  0  0
  -24.1532    2.8052  -29.9522 O   0  0  0  0  0  0  0  0  0  0  0  0
  -22.5540    1.7110  -28.7320 N   0  0  0  0  0  0  0  0  0  0  0  0
  -21.5260    1.9275  -29.6798 C   0  0  0  0  0  0  0  0  0  0  0  0
  -20.7086    3.0329  -29.6685 C   0  0  0  0  0  0  0  0  0  0  0  0
  -19.7096    3.2224  -30.5840 C   0  0  0  0  0  0  0  0  0  0  0  0
  -19.5073    2.2499  -31.5753 C   0  0  0  0  0  0  0  0  0  0  0  0
  -20.3510    1.1378  -31.5584 C   0  0  0  0  0  0  0  0  0  0  0  0
  -21.3369    0.9621  -30.6526 C   0  0  0  0  0  0  0  0  0  0  0  0
  -20.2653    0.0004  -32.4602 N   0  0  0  0  0  0  0  0  0  0  0  0
  -20.5660   -1.2754  -31.9980 C   0  0  0  0  0  0  0  0  0  0  0  0
  -21.0092   -1.3309  -30.7925 O   0  0  0  0  0  0  0  0  0  0  0  0
  -20.4191   -2.5323  -32.7066 C   0  0  0  0  0  0  0  0  0  0  0  0
  -20.8418   -3.6909  -31.9088 N   0  0  0  0  0  0  0  0  0  0  0  0
  -20.4499   -4.9216  -32.6054 C   0  0  0  0  0  0  0  0  0  0  0  0
  -20.8937   -6.0662  -31.7152 C   0  0  0  0  0  0  0  0  0  0  0  0
  -22.2477   -6.0174  -31.4206 O   0  0  0  0  0  0  0  0  0  0  0  0
  -22.6002   -4.8332  -30.7780 C   0  0  0  0  0  0  0  0  0  0  0  0
  -22.2846   -3.6960  -31.7251 C   0  0  0  0  0  0  0  0  0  0  0  0
  -19.8293    0.2009  -33.8159 C   0  0  0  0  0  0  0  0  0  0  0  0
  -20.6476   -0.4799  -34.6805 C   0  0  0  0  0  0  0  0  0  0  0  0
  -20.3476   -0.4248  -36.0097 C   0  0  0  0  0  0  0  0  0  0  0  0
  -19.2440    0.3083  -36.4438 C   0  0  0  0  0  0  0  0  0  0  0  0
  -18.4169    0.9990  -35.5848 C   0  0  0  0  0  0  0  0  0  0  0  0
  -18.7309    0.9348  -34.2309 C   0  0  0  0  0  0  0  0  0  0  0  0
  -17.8335    1.6852  -33.3461 C   0  0  0  0  0  0  0  0  0  0  0  0
  -18.4538    2.6816  -32.4636 C   0  0  0  0  0  0  0  0  0  0  0  0
  -21.6071    0.2416  -31.2343 Cl  0  0  0  0  0  0  0  0  0  0  0  0
  1  2  1  0
  2  3  1  0
  3  4  1  0
  4  5  2  0
  4  6  1  0
  6  7  1  0
  7  8  2  0
  8  9  1  0
  9 10  2  0
 10 11  1  0
 11 12  2  0
 11 13  1  0
 13 14  1  0
 14 15  2  0
 14 16  1  0
 16 17  1  0
 17 18  1  0
 18 19  1  0
 19 20  1  0
 20 21  1  0
 21 22  1  0
 13 23  1  0
 23 24  2  0
 24 25  1  0
 25 26  2  0
 26 27  1  0
 27 28  2  0
 28 29  1  0
 29 30  1  0
 12  7  1  0
 22 17  1  0
 28 23  1  0
 30 10  1  0
M  END
$$$$
