
     RDKit          3D

 10 10  0  0  0  0  0  0  0  0999 V2000
  -16.6876   36.9373  -21.1614 O   0  0  0  0  0  0  0  0  0  0  0  0
  -17.3526   36.8818  -22.2133 C   0  0  0  0  0  0  0  0  0  0  0  0
  -17.5067   35.6969  -22.9470 N   0  0  0  0  0  0  0  0  0  0  0  0
  -17.6438   34.4140  -22.3053 C   0  0  0  0  0  0  0  0  0  0  0  0
  -19.0135   33.9780  -22.0627 C   0  0  0  0  0  0  0  0  0  0  0  0
  -19.7091   33.2071  -22.9532 C   0  0  0  0  0  0  0  0  0  0  0  0
  -21.0063   32.8590  -22.6343 C   0  0  0  0  0  0  0  0  0  0  0  0
  -21.6448   33.2392  -21.4743 C   0  0  0  0  0  0  0  0  0  0  0  0
  -20.9291   34.0175  -20.5827 C   0  0  0  0  0  0  0  0  0  0  0  0
  -19.6301   34.3842  -20.8693 C   0  0  0  0  0  0  0  0  0  0  0  0
  1  2  2  0
  2  3  1  0
  3  4  1  0
  4  5  1  0
  5  6  2  0
  6  7  1  0
  7  8  2  0
  8  9  1  0
  9 10  2  0
 10  5  1  0
M  END
$$$$
