
     RDKit          3D

 20 19  0  0  0  0  0  0  0  0999 V2000
    4.0251   18.9453  -15.7057 C   0  0  0  0  0  0  0  0  0  0  0  0
    4.4793   18.8674  -17.1487 C   0  0  0  0  0  0  0  0  0  0  0  0
    5.9500   18.8229  -17.2719 C   0  0  0  0  0  0  0  0  0  0  0  0
    6.5416   17.7738  -16.9191 O   0  0  0  0  0  0  0  0  0  0  0  0
    6.7212   19.8679  -17.7533 O   0  0  0  0  0  1  0  0  0  0  0  0
    3.8712   19.9654  -17.9446 C   0  0  0  0  0  0  0  0  0  0  0  0
    4.1792   21.2821  -17.6910 C   0  0  0  0  0  0  0  0  0  0  0  0
    3.6041   22.2930  -18.4416 C   0  0  0  0  0  0  0  0  0  0  0  0
    2.7206   21.9930  -19.4466 C   0  0  0  0  0  0  0  0  0  0  0  0
    2.3676   20.6534  -19.7508 C   0  0  0  0  0  0  0  0  0  0  0  0
    1.5127   20.4695  -20.7317 O   0  0  0  0  0  0  0  0  0  0  0  0
    0.8169   19.6735  -21.4785 C   0  0  0  0  0  0  0  0  0  0  0  0
    0.7923   18.3050  -21.3974 C   0  0  0  0  0  0  0  0  0  0  0  0
    0.0130   17.5317  -22.2432 C   0  0  0  0  0  0  0  0  0  0  0  0
   -0.7714   18.1122  -23.2034 C   0  0  0  0  0  0  0  0  0  0  0  0
   -0.7747   19.4649  -23.3158 C   0  0  0  0  0  0  0  0  0  0  0  0
   -0.0046   20.2360  -22.4805 C   0  0  0  0  0  0  0  0  0  0  0  0
    2.9722   19.7077  -18.9711 C   0  0  0  0  0  0  0  0  0  0  0  0
    2.4567   19.2090  -19.4131 O   0  0  0  0  0  0  0  0  0  0  0  0
    2.4213   19.6084  -19.3967 Ca  0  0  0  0  0 15  0  0  0  0  0  0
  1  2  1  0
  2  3  1  0
  3  4  2  0
  3  5  1  0
  2  6  1  0
  6  7  2  0
  7  8  1  0
  8  9  2  0
  9 10  1  0
 10 11  1  0
 11 12  1  0
 12 13  2  0
 13 14  1  0
 14 15  2  0
 15 16  1  0
 16 17  2  0
 10 18  2  0
 18  6  1  0
 17 12  1  0
M  CHG  2   5  -1  20   2
M  END
$$$$
