
     RDKit          3D

 32 33  0  0  0  0  0  0  0  0999 V2000
  -20.6725   19.9914  -33.4421 C   0  0  0  0  0  0  0  0  0  0  0  0
  -19.3198   19.8312  -33.9926 N   0  0  0  0  0  0  0  0  0  0  0  0
  -18.8096   20.7591  -34.9346 C   0  0  0  0  0  0  0  0  0  0  0  0
  -18.8827   21.9836  -34.6390 O   0  0  0  0  0  0  0  0  0  0  0  0
  -18.2313   20.2560  -36.1867 C   0  0  2  0  0  0  0  0  0  0  0  0
  -16.9844   21.0155  -36.5477 C   0  0  0  0  0  0  0  0  0  0  0  0
  -15.8852   20.7535  -35.5966 C   0  0  0  0  0  0  0  0  0  0  0  0
  -15.4347   21.7389  -34.7578 C   0  0  0  0  0  0  0  0  0  0  0  0
  -14.4157   21.4664  -33.8896 C   0  0  0  0  0  0  0  0  0  0  0  0
  -13.8200   20.2374  -33.8219 C   0  0  0  0  0  0  0  0  0  0  0  0
  -14.2769   19.2488  -34.6681 C   0  0  0  0  0  0  0  0  0  0  0  0
  -15.3021   19.5042  -35.5493 C   0  0  0  0  0  0  0  0  0  0  0  0
  -19.1699   20.3267  -37.2971 N   0  0  0  0  0  0  0  0  0  0  0  0
  -18.8488   19.7413  -38.5577 C   0  0  0  0  0  0  0  0  0  0  0  0
  -17.7270   19.2222  -38.6823 O   0  0  0  0  0  0  0  0  0  0  0  0
  -19.8795   19.7701  -39.6998 C   0  0  2  0  0  0  0  0  0  0  0  0
  -20.3738   21.1239  -39.7200 C   0  0  0  0  0  0  0  0  0  0  0  0
  -19.7357   22.3047  -40.2742 C   0  0  0  0  0  0  0  0  0  0  0  0
  -18.3399   22.0259  -40.8058 C   0  0  0  0  0  0  0  0  0  0  0  0
  -20.4377   23.2080  -41.1968 C   0  0  0  0  0  0  0  0  0  0  0  0
  -20.8868   18.7000  -39.2796 C   0  0  2  0  0  0  0  0  0  0  0  0
  -20.1597   17.3602  -39.2385 C   0  0  0  0  0  0  0  0  0  0  0  0
  -21.0296   16.0450  -38.5045 S   0  0  0  0  0  0  0  0  0  0  0  0
  -20.6463   15.3993  -36.9763 C   0  0  0  0  0  0  0  0  0  0  0  0
  -20.9162   15.6654  -35.6571 C   0  0  0  0  0  0  0  0  0  0  0  0
  -20.4386   14.9142  -34.6793 C   0  0  0  0  0  0  0  0  0  0  0  0
  -19.6356   13.8171  -34.9850 C   0  0  0  0  0  0  0  0  0  0  0  0
  -19.5710   13.8801  -36.7901 S   0  0  0  0  0  0  0  0  0  0  0  0
  -21.8858   18.5596  -40.3770 C   0  0  0  0  0  0  0  0  0  0  0  0
  -23.0996   18.3780  -40.1130 O   0  0  0  0  0  0  0  0  0  0  0  0
  -21.5404   18.6143  -41.7546 N   0  0  0  0  0  0  0  0  0  0  0  0
  -20.2976   18.2944  -42.2027 O   0  0  0  0  0  0  0  0  0  0  0  0
  1  2  1  0
  2  3  1  0
  3  4  2  0
  3  5  1  0
  5  6  1  6
  6  7  1  0
  7  8  2  0
  8  9  1  0
  9 10  2  0
 10 11  1  0
 11 12  2  0
  5 13  1  0
 13 14  1  0
 14 15  2  0
 14 16  1  0
 16 17  1  1
 17 18  1  0
 18 19  1  0
 18 20  1  0
 16 21  1  0
 21 22  1  6
 22 23  1  0
 23 24  1  0
 24 25  2  0
 25 26  1  0
 26 27  2  0
 27 28  1  0
 21 29  1  0
 29 30  2  0
 29 31  1  0
 31 32  1  0
 12  7  1  0
 28 24  1  0
M  END
$$$$
