
     RDKit          3D

 35 38  0  0  0  0  0  0  0  0999 V2000
  -16.4171   45.8608  -22.9235 C   0  0  0  0  0  0  0  0  0  0  0  0
  -15.7831   44.6674  -22.5705 O   0  0  0  0  0  0  0  0  0  0  0  0
  -16.3737   43.6840  -21.7788 C   0  0  0  0  0  0  0  0  0  0  0  0
  -17.6147   43.1798  -22.0819 C   0  0  0  0  0  0  0  0  0  0  0  0
  -18.1959   42.2187  -21.3105 C   0  0  0  0  0  0  0  0  0  0  0  0
  -17.5217   41.7511  -20.2115 C   0  0  0  0  0  0  0  0  0  0  0  0
  -18.1650   40.6997  -19.3875 C   0  0  0  0  0  0  0  0  0  0  0  0
  -17.8275   39.3764  -20.0081 C   0  0  0  0  0  0  0  0  0  0  0  0
  -16.6991   38.7088  -19.7257 N   0  0  0  0  0  0  0  0  0  0  0  0
  -16.4670   37.5181  -20.3352 C   0  0  0  0  0  0  0  0  0  0  0  0
  -15.3948   36.9064  -20.0522 O   0  0  0  0  0  0  0  0  0  0  0  0
  -17.3840   37.0116  -21.2296 C   0  0  0  0  0  0  0  0  0  0  0  0
  -17.4273   35.8758  -21.9826 C   0  0  0  0  0  0  0  0  0  0  0  0
  -16.4076   34.8032  -22.0303 C   0  0  0  0  0  0  0  0  0  0  0  0
  -18.5811   35.9250  -22.6761 N   0  0  0  0  0  0  0  0  0  0  0  0
  -19.2565   37.0414  -22.3879 C   0  0  0  0  0  0  0  0  0  0  0  0
  -20.5869   37.4041  -23.0029 C   0  0  1  0  0  0  0  0  0  0  0  0
  -20.5186   37.7292  -24.4333 C   0  0  0  0  0  0  0  0  0  0  0  0
  -20.0985   39.0439  -24.9120 C   0  0  0  0  0  0  0  0  0  0  0  0
  -19.3819   39.2073  -26.1969 C   0  0  0  0  0  0  0  0  0  0  0  0
  -20.0889   38.6668  -27.3571 C   0  0  0  0  0  0  0  0  0  0  0  0
  -21.2271   39.3418  -27.7983 C   0  0  0  0  0  0  0  0  0  0  0  0
  -21.9618   38.9096  -28.8791 C   0  0  0  0  0  0  0  0  0  0  0  0
  -21.5681   37.7559  -29.5702 C   0  0  0  0  0  0  0  0  0  0  0  0
  -20.4424   37.0940  -29.1289 C   0  0  0  0  0  0  0  0  0  0  0  0
  -19.7095   37.5556  -28.0228 C   0  0  0  0  0  0  0  0  0  0  0  0
  -21.7031   36.6960  -22.3717 C   0  0  1  0  0  0  0  0  0  0  0  0
  -21.6639   36.4319  -20.9157 C   0  0  0  0  0  0  0  0  0  0  0  0
  -22.8633   37.5233  -22.5675 O   0  0  0  0  0  0  0  0  0  0  0  0
  -18.5112   37.7001  -21.4984 N   0  0  0  0  0  0  0  0  0  0  0  0
  -18.7083   38.8546  -20.8897 N   0  0  0  0  0  0  0  0  0  0  0  0
  -16.2808   42.2202  -19.8642 C   0  0  0  0  0  0  0  0  0  0  0  0
  -15.7053   43.2080  -20.6739 C   0  0  0  0  0  0  0  0  0  0  0  0
  -14.4541   43.7221  -20.3764 O   0  0  0  0  0  0  0  0  0  0  0  0
  -13.6853   43.1672  -19.3432 C   0  0  0  0  0  0  0  0  0  0  0  0
  1  2  1  0
  2  3  1  0
  3  4  2  0
  4  5  1  0
  5  6  2  0
  6  7  1  0
  7  8  1  0
  8  9  2  0
  9 10  1  0
 10 11  2  0
 10 12  1  0
 12 13  2  0
 13 14  1  0
 13 15  1  0
 15 16  2  0
 16 17  1  0
 17 18  1  6
 18 19  1  0
 19 20  1  0
 20 21  1  0
 21 22  2  0
 22 23  1  0
 23 24  2  0
 24 25  1  0
 25 26  2  0
 17 27  1  0
 27 28  1  1
 27 29  1  0
 16 30  1  0
 30 31  1  0
  6 32  1  0
 32 33  2  0
 33 34  1  0
 34 35  1  0
 33  3  1  0
 31  8  1  0
 30 12  1  0
 26 21  1  0
M  END
$$$$
