
     RDKit          3D

 30 34  0  0  0  0  0  0  0  0999 V2000
  -17.1892   51.1666  -16.5617 C   0  0  0  0  0  0  0  0  0  0  0  0
  -16.7537   50.1709  -17.5095 N   0  0  0  0  0  0  0  0  0  0  0  0
  -17.2203   48.9070  -17.6536 C   0  0  0  0  0  0  0  0  0  0  0  0
  -16.5223   48.3080  -18.6767 C   0  0  0  0  0  0  0  0  0  0  0  0
  -16.6492   46.9586  -19.2165 C   0  0  0  0  0  0  0  0  0  0  0  0
  -17.6427   46.0997  -18.7964 C   0  0  0  0  0  0  0  0  0  0  0  0
  -17.7825   44.8241  -19.2894 C   0  0  0  0  0  0  0  0  0  0  0  0
  -16.9046   44.3186  -20.2652 C   0  0  0  0  0  0  0  0  0  0  0  0
  -17.0883   42.9843  -20.7933 C   0  0  0  0  0  0  0  0  0  0  0  0
  -16.4636   41.8940  -20.1703 C   0  0  0  0  0  0  0  0  0  0  0  0
  -16.6250   40.6391  -20.6269 N   0  0  0  0  0  0  0  0  0  0  0  0
  -17.3856   40.3530  -21.6958 C   0  0  0  0  0  0  0  0  0  0  0  0
  -18.0177   41.4223  -22.3329 C   0  0  0  0  0  0  0  0  0  0  0  0
  -19.0268   41.1360  -23.7173 Cl  0  0  0  0  0  0  0  0  0  0  0  0
  -17.8670   42.7390  -21.8795 C   0  0  0  0  0  0  0  0  0  0  0  0
  -18.5210   43.7680  -22.5720 N   0  0  0  0  0  0  0  0  0  0  0  0
  -19.7895   44.3519  -22.2609 C   0  0  0  0  0  0  0  0  0  0  0  0
  -20.7350   44.3145  -23.4026 C   0  0  0  0  0  0  0  0  0  0  0  0
  -20.1710   44.3771  -24.7628 C   0  0  0  0  0  0  0  0  0  0  0  0
  -20.9085   43.4779  -25.7523 C   0  0  0  0  0  0  0  0  0  0  0  0
  -22.0950   44.2408  -26.2430 C   0  0  0  0  0  0  0  0  0  0  0  0
  -21.5574   45.5930  -26.3084 N   0  0  0  0  0  0  0  0  0  0  0  0
  -20.5298   45.7275  -25.3420 C   0  0  0  0  0  0  0  0  0  0  0  0
  -19.9814   46.8006  -24.9997 O   0  0  0  0  0  0  0  0  0  0  0  0
  -18.7065   44.2382  -24.9242 C   0  0  0  0  0  0  0  0  0  0  0  0
  -17.8546   44.3615  -23.7285 C   0  0  0  0  0  0  0  0  0  0  0  0
  -15.9188   45.1811  -20.6785 C   0  0  0  0  0  0  0  0  0  0  0  0
  -15.7800   46.4817  -20.1722 C   0  0  0  0  0  0  0  0  0  0  0  0
  -15.6353   49.2647  -19.1222 C   0  0  0  0  0  0  0  0  0  0  0  0
  -15.8055   50.3596  -18.4007 N   0  0  0  0  0  0  0  0  0  0  0  0
  1  2  1  0
  2  3  1  0
  3  4  2  0
  4  5  1  0
  5  6  2  0
  6  7  1  0
  7  8  2  0
  8  9  1  0
  9 10  2  0
 10 11  1  0
 11 12  2  0
 12 13  1  0
 13 14  1  0
 13 15  2  0
 15 16  1  0
 16 17  1  0
 17 18  1  0
 18 19  1  0
 19 20  1  0
 20 21  1  0
 21 22  1  0
 22 23  1  0
 23 24  2  0
 19 25  1  0
 25 26  1  0
  8 27  1  0
 27 28  2  0
  4 29  1  0
 29 30  2  0
 30  2  1  0
 28  5  1  0
 15  9  1  0
 26 16  1  0
 23 19  1  0
M  END
$$$$
