
     RDKit          3D

 12 12  0  0  0  0  0  0  0  0999 V2000
  -18.5557   21.1081  -40.3602 O   0  0  0  0  0  0  0  0  0  0  0  0
  -19.2233   21.5155  -41.3421 C   0  0  0  0  0  0  0  0  0  0  0  0
  -18.6357   21.3867  -42.5912 O   0  0  0  0  0  0  0  0  0  0  0  0
  -20.5318   22.0810  -41.1220 C   0  0  0  0  0  0  0  0  0  0  0  0
  -21.3915   22.2659  -42.1729 C   0  0  0  0  0  0  0  0  0  0  0  0
  -22.6602   22.8131  -41.9664 C   0  0  0  0  0  0  0  0  0  0  0  0
  -23.8729   23.0803  -43.4080 Br  0  0  0  0  0  0  0  0  0  0  0  0
  -23.0637   23.1752  -40.6950 C   0  0  0  0  0  0  0  0  0  0  0  0
  -22.2051   22.9905  -39.6453 C   0  0  0  0  0  0  0  0  0  0  0  0
  -22.7151   23.4739  -37.8744 Br  0  0  0  0  0  0  0  0  0  0  0  0
  -20.9462   22.4447  -39.8688 C   0  0  0  0  0  0  0  0  0  0  0  0
  -20.0693   22.2533  -38.8145 O   0  0  0  0  0  0  0  0  0  0  0  0
  1  2  2  0
  2  3  1  0
  2  4  1  0
  4  5  2  0
  5  6  1  0
  6  7  1  0
  6  8  2  0
  8  9  1  0
  9 10  1  0
  9 11  2  0
 11 12  1  0
 11  4  1  0
M  END
$$$$
