
     RDKit          3D

 22 24  0  0  0  0  0  0  0  0999 V2000
  -29.2169   18.3426  -27.1498 Cl  0  0  0  0  0  0  0  0  0  0  0  0
  -27.8603   15.1607  -24.2565 C   0  0  0  0  0  0  0  0  0  0  0  0
  -28.9550   15.6478  -25.0969 N   0  0  0  0  0  0  0  0  0  0  0  0
  -28.8872   16.7188  -25.9324 C   0  0  0  0  0  0  0  0  0  0  0  0
  -30.0891   16.9109  -26.5789 C   0  0  0  0  0  0  0  0  0  0  0  0
  -30.4532   17.9335  -27.5484 C   0  0  0  0  0  0  0  0  0  0  0  0
  -31.6584   17.8859  -27.9938 O   0  0  0  0  0  0  0  0  0  0  0  0
  -29.5620   18.9839  -28.0365 C   0  0  2  0  0  0  0  0  0  0  0  0
  -28.3399   18.5431  -28.7512 C   0  0  0  0  0  0  0  0  0  0  0  0
  -27.2766   19.5910  -28.7567 C   0  0  0  0  0  0  0  0  0  0  0  0
  -27.7675   20.9848  -28.6453 C   0  0  0  0  0  0  0  0  0  0  0  0
  -27.5210   22.1799  -29.2187 N   0  0  0  0  0  0  0  0  0  0  0  0
  -28.3122   23.1107  -28.6696 C   0  0  0  0  0  0  0  0  0  0  0  0
  -29.0675   22.4733  -27.7323 N   0  0  0  0  0  0  0  0  0  0  0  0
  -28.7536   21.1930  -27.7036 C   0  0  0  0  0  0  0  0  0  0  0  0
  -29.1798   20.0035  -26.9585 C   0  0  0  0  0  0  0  0  0  0  0  0
  -30.9117   15.8854  -26.0888 C   0  0  0  0  0  0  0  0  0  0  0  0
  -32.2083   15.5605  -26.3573 C   0  0  0  0  0  0  0  0  0  0  0  0
  -32.7557   14.4576  -25.6923 C   0  0  0  0  0  0  0  0  0  0  0  0
  -32.0471   13.6970  -24.7894 C   0  0  0  0  0  0  0  0  0  0  0  0
  -30.7345   14.0485  -24.5358 C   0  0  0  0  0  0  0  0  0  0  0  0
  -30.1898   15.1322  -25.1865 C   0  0  0  0  0  0  0  0  0  0  0  0
  2  3  1  0
  3  4  1  0
  4  5  2  0
  5  6  1  0
  6  7  2  0
  8  6  1  1
  8  9  1  0
  9 10  1  0
 10 11  1  0
 11 12  1  0
 12 13  2  0
 13 14  1  0
 14 15  1  0
 15 16  1  0
  5 17  1  0
 17 18  2  0
 18 19  1  0
 19 20  2  0
 20 21  1  0
 21 22  2  0
 22  3  1  0
 16  8  1  0
 22 17  1  0
 15 11  2  0
M  END
$$$$
