
     RDKit          3D

 29 31  0  0  0  0  0  0  0  0999 V2000
  -15.1634   17.2514  -30.6789 O   0  0  0  0  0  0  0  0  0  0  0  0
  -15.9205   16.3871  -31.1860 C   0  0  0  0  0  0  0  0  0  0  0  0
  -17.0450   16.8342  -32.0437 C   0  0  0  0  0  0  0  0  0  0  0  0
  -16.8585   18.2824  -32.4351 C   0  0  0  0  0  0  0  0  0  0  0  0
  -15.9209   18.4166  -33.5387 N   0  0  0  0  0  0  0  0  0  0  0  0
  -16.1219   17.5831  -34.6691 C   0  0  0  0  0  0  0  0  0  0  0  0
  -17.0448   16.7033  -34.6324 O   0  0  0  0  0  0  0  0  0  0  0  0
  -15.3172   17.6884  -35.8748 C   0  0  0  0  0  0  0  0  0  0  0  0
  -15.8118   17.5429  -37.1477 C   0  0  0  0  0  0  0  0  0  0  0  0
  -15.0377   17.6450  -38.2883 C   0  0  0  0  0  0  0  0  0  0  0  0
  -13.6908   17.9082  -38.1409 C   0  0  0  0  0  0  0  0  0  0  0  0
  -12.8717   18.0199  -39.2567 O   0  0  0  0  0  0  0  0  0  0  0  0
  -12.1120   16.9137  -39.7099 C   0  0  0  0  0  0  0  0  0  0  0  0
  -12.5263   16.5956  -40.9819 F   0  0  0  0  0  0  0  0  0  0  0  0
  -10.7820   17.2453  -39.6535 F   0  0  0  0  0  0  0  0  0  0  0  0
  -12.3478   15.8109  -38.9151 F   0  0  0  0  0  0  0  0  0  0  0  0
  -13.1429   18.0632  -36.8851 C   0  0  0  0  0  0  0  0  0  0  0  0
  -13.9520   17.9531  -35.7762 C   0  0  0  0  0  0  0  0  0  0  0  0
  -15.6930   15.0280  -30.9358 N   0  0  0  0  0  0  0  0  0  0  0  0
  -14.4702   14.4996  -30.3624 C   0  0  2  0  0  0  0  0  0  0  0  0
  -13.8638   13.5545  -31.3582 C   0  0  0  0  0  0  0  0  0  0  0  0
  -13.0312   12.4967  -30.6496 C   0  0  0  0  0  0  0  0  0  0  0  0
  -14.0024   11.6338  -29.8715 C   0  0  0  0  0  0  0  0  0  0  0  0
  -14.6328   12.4971  -28.8388 C   0  0  0  0  0  0  0  0  0  0  0  0
  -15.0172   11.9630  -27.6099 C   0  0  0  0  0  0  0  0  0  0  0  0
  -15.6049   12.7284  -26.6248 C   0  0  0  0  0  0  0  0  0  0  0  0
  -15.8037   14.0657  -26.9008 C   0  0  0  0  0  0  0  0  0  0  0  0
  -15.4238   14.5956  -28.1165 C   0  0  0  0  0  0  0  0  0  0  0  0
  -14.8346   13.8160  -29.0971 C   0  0  0  0  0  0  0  0  0  0  0  0
  1  2  2  0
  2  3  1  0
  3  4  1  0
  4  5  1  0
  5  6  1  0
  6  7  2  0
  6  8  1  0
  8  9  2  0
  9 10  1  0
 10 11  2  0
 11 12  1  0
 12 13  1  0
 13 14  1  0
 13 15  1  0
 13 16  1  0
 11 17  1  0
 17 18  2  0
  2 19  1  0
 20 19  1  6
 20 21  1  0
 21 22  1  0
 22 23  1  0
 23 24  1  0
 24 25  2  0
 25 26  1  0
 26 27  2  0
 27 28  1  0
 28 29  2  0
 18  8  1  0
 29 20  1  0
 29 24  1  0
M  END
$$$$
