
     RDKit          3D

 10 10  0  0  0  0  0  0  0  0999 V2000
  -18.9645   32.2585  -22.6346 O   0  0  0  0  0  0  0  0  0  0  0  0
  -18.3779   33.4961  -22.9305 C   0  0  0  0  0  0  0  0  0  0  0  0
  -18.7098   34.4349  -21.7863 C   0  0  0  0  0  0  0  0  0  0  0  0
  -18.3480   35.8356  -22.1024 C   0  0  0  0  0  0  0  0  0  0  0  0
  -17.1648   36.3805  -21.6624 C   0  0  0  0  0  0  0  0  0  0  0  0
  -16.8170   37.7003  -21.9564 C   0  0  0  0  0  0  0  0  0  0  0  0
  -17.6532   38.4789  -22.6922 C   0  0  0  0  0  0  0  0  0  0  0  0
  -17.3316   39.7986  -23.0003 O   0  0  0  0  0  0  0  0  0  0  0  0
  -18.8587   37.9346  -23.1445 C   0  0  0  0  0  0  0  0  0  0  0  0
  -19.1863   36.6316  -22.8457 C   0  0  0  0  0  0  0  0  0  0  0  0
  1  2  1  0
  2  3  1  0
  3  4  1  0
  4  5  2  0
  5  6  1  0
  6  7  2  0
  7  8  1  0
  7  9  1  0
  9 10  2  0
 10  4  1  0
M  END
$$$$
