
     RDKit          3D

 17 18  0  0  0  0  0  0  0  0999 V2000
  -19.0365   36.8925  -25.9040 C   0  0  0  0  0  0  0  0  0  0  0  0
  -19.8658   36.7745  -24.6603 C   0  0  0  0  0  0  0  0  0  0  0  0
  -19.1396   37.2380  -23.4768 N   0  0  0  0  0  0  0  0  0  0  0  0
  -19.2012   38.5264  -23.1029 C   0  0  0  0  0  0  0  0  0  0  0  0
  -18.5039   38.9262  -21.9827 C   0  0  0  0  0  0  0  0  0  0  0  0
  -18.5950   40.3378  -21.6061 C   0  0  0  0  0  0  0  0  0  0  0  0
  -18.7788   41.2473  -22.4511 O   0  0  0  0  0  0  0  0  0  0  0  0
  -18.4771   40.7068  -20.2755 O   0  0  0  0  0  0  0  0  0  0  0  0
  -17.7498   38.0484  -21.2393 C   0  0  0  0  0  0  0  0  0  0  0  0
  -17.1202   38.4176  -20.2250 O   0  0  0  0  0  0  0  0  0  0  0  0
  -17.6981   36.7360  -21.6357 C   0  0  0  0  0  0  0  0  0  0  0  0
  -16.9563   35.7863  -20.9353 C   0  0  0  0  0  0  0  0  0  0  0  0
  -16.9269   34.4750  -21.3625 C   0  0  0  0  0  0  0  0  0  0  0  0
  -17.6350   34.1084  -22.4859 C   0  0  0  0  0  0  0  0  0  0  0  0
  -17.6162   32.6946  -22.9647 C   0  0  0  0  0  0  0  0  0  0  0  0
  -18.3379   35.0483  -23.1354 N   0  0  0  0  0  0  0  0  0  0  0  0
  -18.4010   36.3531  -22.7578 C   0  0  0  0  0  0  0  0  0  0  0  0
  1  2  1  0
  2  3  1  0
  3  4  1  0
  4  5  2  0
  5  6  1  0
  6  7  2  0
  6  8  1  0
  5  9  1  0
  9 10  2  0
  9 11  1  0
 11 12  2  0
 12 13  1  0
 13 14  2  0
 14 15  1  0
 14 16  1  0
 16 17  2  0
 17  3  1  0
 17 11  1  0
M  END
$$$$
