
     RDKit          3D

 26 27  0  0  0  0  0  0  0  0999 V2000
  -16.8279   41.6954  -19.5249 C   0  0  0  0  0  0  0  0  0  0  0  0
  -16.2157   42.5491  -20.6578 C   0  0  0  0  0  0  0  0  0  0  0  0
  -14.9620   43.0010  -20.5233 C   0  0  0  0  0  0  0  0  0  0  0  0
  -14.4875   43.8478  -21.5020 C   0  0  0  0  0  0  0  0  0  0  0  0
  -15.8327   44.0100  -22.6341 S   0  0  0  0  0  0  0  0  0  0  0  0
  -16.9748   42.8985  -21.6963 C   0  0  0  0  0  0  0  0  0  0  0  0
  -18.2288   42.5069  -22.2762 C   0  0  0  0  0  0  0  0  0  0  0  0
  -18.6322   41.2800  -22.3689 C   0  0  0  0  0  0  0  0  0  0  0  0
  -17.8953   40.0838  -21.9222 C   0  0  0  0  0  0  0  0  0  0  0  0
  -17.8930   39.0809  -23.0892 C   0  0  0  0  0  0  0  0  0  0  0  0
  -17.1729   37.9172  -22.7020 N   0  0  0  0  0  0  0  0  0  0  0  0
  -17.1083   37.0177  -23.8668 C   0  0  0  0  0  0  0  0  0  0  0  0
  -18.4536   36.4380  -24.1793 C   0  0  0  0  0  0  0  0  0  0  0  0
  -19.1053   35.7782  -23.0094 C   0  0  0  0  0  0  0  0  0  0  0  0
  -19.1964   36.8121  -21.8826 C   0  0  1  0  0  0  0  0  0  0  0  0
  -19.7460   36.1143  -20.7018 C   0  0  0  0  0  0  0  0  0  0  0  0
  -20.8278   36.5126  -20.1940 O   0  0  0  0  0  0  0  0  0  0  0  0
  -19.1161   35.0237  -20.1174 O   0  0  0  0  0  0  0  0  0  0  0  0
  -17.7765   37.2109  -21.5897 C   0  0  0  0  0  0  0  0  0  0  0  0
  -19.1122   43.5518  -22.8096 C   0  0  0  0  0  0  0  0  0  0  0  0
  -20.5066   43.1352  -23.8960 S   0  0  0  0  0  0  0  0  0  0  0  0
  -21.0993   44.8044  -24.0428 C   0  0  0  0  0  0  0  0  0  0  0  0
  -20.2364   45.5213  -23.2910 C   0  0  0  0  0  0  0  0  0  0  0  0
  -19.2239   44.8692  -22.6630 C   0  0  0  0  0  0  0  0  0  0  0  0
  -18.2949   45.6669  -21.7501 C   0  0  0  0  0  0  0  0  0  0  0  0
  -18.1330   39.8034  -22.3804 Cl  0  0  0  0  0  0  0  0  0  0  0  0
  1  2  1  0
  2  3  1  0
  3  4  2  0
  4  5  1  0
  5  6  1  0
  6  7  1  0
  7  8  2  3
  8  9  1  0
  9 10  1  0
 10 11  1  0
 11 12  1  0
 12 13  1  0
 13 14  1  0
 14 15  1  0
 15 16  1  1
 16 17  2  0
 16 18  1  0
 15 19  1  0
  7 20  1  0
 20 21  1  0
 21 22  1  0
 22 23  2  0
 23 24  1  0
 24 25  1  0
  6  2  2  0
 19 11  1  0
 24 20  2  0
M  END
$$$$
