
     RDKit          3D

 26 29  0  0  0  0  0  0  0  0999 V2000
  -26.2556    3.5693  -29.2089 C   0  0  0  0  0  0  0  0  0  0  0  0
  -26.0449    4.6494  -28.2932 O   0  0  0  0  0  0  0  0  0  0  0  0
  -26.4965    5.9099  -28.6603 C   0  0  0  0  0  0  0  0  0  0  0  0
  -25.9428    7.0061  -28.0276 C   0  0  0  0  0  0  0  0  0  0  0  0
  -24.7072    6.8602  -26.7936 Cl  0  0  0  0  0  0  0  0  0  0  0  0
  -26.3645    8.2824  -28.3651 C   0  0  0  0  0  0  0  0  0  0  0  0
  -27.3331    8.4329  -29.3303 C   0  0  0  0  0  0  0  0  0  0  0  0
  -27.8871    7.3101  -29.9633 C   0  0  0  0  0  0  0  0  0  0  0  0
  -28.7940    7.7865  -30.8446 N   0  0  0  0  0  0  0  0  0  0  0  0
  -28.8241    9.1426  -30.7832 C   0  0  0  0  0  0  0  0  0  0  0  0
  -29.5847   10.0658  -31.4829 C   0  0  0  0  0  0  0  0  0  0  0  0
  -29.4215   11.3642  -31.2262 N   0  0  0  0  0  0  0  0  0  0  0  0
  -28.5411   11.8461  -30.3070 C   0  0  0  0  0  0  0  0  0  0  0  0
  -27.7877   10.9241  -29.6145 C   0  0  0  0  0  0  0  0  0  0  0  0
  -27.9173    9.5700  -29.8410 C   0  0  0  0  0  0  0  0  0  0  0  0
  -27.4714    6.0420  -29.6324 C   0  0  0  0  0  0  0  0  0  0  0  0
  -28.0322    4.9113  -30.2768 N   0  0  0  0  0  0  0  0  0  0  0  0
  -28.5547    5.0031  -31.6066 C   0  0  0  0  0  0  0  0  0  0  0  0
  -27.9137    5.8306  -32.3568 O   0  0  0  0  0  0  0  0  0  0  0  0
  -29.6759    4.2818  -32.1251 C   0  0  0  0  0  0  0  0  0  0  0  0
  -29.4700    3.2995  -33.1014 C   0  0  0  0  0  0  0  0  0  0  0  0
  -30.5247    2.5816  -33.6250 C   0  0  0  0  0  0  0  0  0  0  0  0
  -31.8246    2.8241  -33.1878 C   0  0  0  0  0  0  0  0  0  0  0  0
  -31.9953    3.7609  -32.2598 N   0  0  0  0  0  0  0  0  0  0  0  0
  -30.9609    4.4899  -31.7230 C   0  0  0  0  0  0  0  0  0  0  0  0
  -31.2544    5.5129  -30.6933 C   0  0  0  0  0  0  0  0  0  0  0  0
  1  2  1  0
  2  3  1  0
  3  4  2  0
  4  5  1  0
  4  6  1  0
  6  7  2  0
  7  8  1  0
  8  9  1  0
  9 10  1  0
 10 11  2  0
 11 12  1  0
 12 13  2  0
 13 14  1  0
 14 15  2  0
  8 16  2  0
 16 17  1  0
 17 18  1  0
 18 19  2  0
 18 20  1  0
 20 21  2  0
 21 22  1  0
 22 23  2  0
 23 24  1  0
 24 25  2  0
 25 26  1  0
 16  3  1  0
 25 20  1  0
 15  7  1  0
 15 10  1  0
M  END
$$$$
