
     RDKit          3D

 36 41  0  0  0  0  0  0  0  0999 V2000
  -17.4458   44.7881  -27.6725 C   0  0  0  0  0  0  0  0  0  0  0  0
  -18.5817   45.1408  -26.7044 C   0  0  0  0  0  0  0  0  0  0  0  0
  -18.8744   46.6097  -26.9645 C   0  0  0  0  0  0  0  0  0  0  0  0
  -19.7183   44.3652  -27.1223 C   0  0  0  0  0  0  0  0  0  0  0  0
  -20.6522   43.7065  -27.4583 N   0  0  0  0  0  0  0  0  0  0  0  0
  -18.1623   44.9128  -25.3073 C   0  0  0  0  0  0  0  0  0  0  0  0
  -18.8882   45.3690  -24.2272 C   0  0  0  0  0  0  0  0  0  0  0  0
  -18.4741   45.1661  -22.9296 C   0  0  0  0  0  0  0  0  0  0  0  0
  -17.2928   44.4873  -22.6244 C   0  0  0  0  0  0  0  0  0  0  0  0
  -16.7871   44.4123  -21.3100 N   0  0  0  0  0  0  0  0  0  0  0  0
  -16.0803   45.6366  -20.8950 C   0  0  0  0  0  0  0  0  0  0  0  0
  -16.0306   46.5783  -21.7455 O   0  0  0  0  0  0  0  0  0  0  0  0
  -15.5352   45.7007  -19.6674 O   0  0  0  0  0  0  0  0  0  0  0  0
  -15.5656   44.7283  -18.7130 C   0  0  0  0  0  0  0  0  0  0  0  0
  -16.2596   43.5003  -19.1140 C   0  0  0  0  0  0  0  0  0  0  0  0
  -16.3345   42.4490  -18.2294 C   0  0  0  0  0  0  0  0  0  0  0  0
  -16.9364   41.3159  -18.5090 N   0  0  0  0  0  0  0  0  0  0  0  0
  -17.5111   41.1568  -19.7095 C   0  0  0  0  0  0  0  0  0  0  0  0
  -18.1481   39.9643  -19.9997 C   0  0  0  0  0  0  0  0  0  0  0  0
  -18.7384   39.7991  -21.2177 C   0  0  0  0  0  0  0  0  0  0  0  0
  -18.7398   40.7601  -22.1920 C   0  0  0  0  0  0  0  0  0  0  0  0
  -19.3973   40.5504  -23.4784 C   0  0  0  0  0  0  0  0  0  0  0  0
  -20.7517   40.3132  -23.5979 C   0  0  0  0  0  0  0  0  0  0  0  0
  -21.3262   40.1120  -24.8094 N   0  0  0  0  0  0  0  0  0  0  0  0
  -20.6534   40.1235  -25.9708 C   0  0  0  0  0  0  0  0  0  0  0  0
  -21.2770   39.9148  -27.1881 C   0  0  0  0  0  0  0  0  0  0  0  0
  -20.5843   39.9303  -28.3796 C   0  0  0  0  0  0  0  0  0  0  0  0
  -19.2139   40.1682  -28.2972 C   0  0  0  0  0  0  0  0  0  0  0  0
  -18.5963   40.3752  -27.0853 C   0  0  0  0  0  0  0  0  0  0  0  0
  -19.2847   40.3608  -25.8880 C   0  0  0  0  0  0  0  0  0  0  0  0
  -18.6892   40.5676  -24.6598 C   0  0  0  0  0  0  0  0  0  0  0  0
  -18.0868   41.9675  -21.8824 C   0  0  0  0  0  0  0  0  0  0  0  0
  -17.4865   42.1748  -20.6827 C   0  0  0  0  0  0  0  0  0  0  0  0
  -16.8422   43.3812  -20.3758 C   0  0  0  0  0  0  0  0  0  0  0  0
  -16.5652   44.0280  -23.7358 C   0  0  0  0  0  0  0  0  0  0  0  0
  -16.9882   44.2352  -25.0280 C   0  0  0  0  0  0  0  0  0  0  0  0
  1  2  1  0
  2  3  1  0
  2  4  1  0
  4  5  3  0
  2  6  1  0
  6  7  2  0
  7  8  1  0
  8  9  2  0
  9 10  1  0
 10 11  1  0
 11 12  2  0
 11 13  1  0
 13 14  1  0
 14 15  1  0
 15 16  2  0
 16 17  1  0
 17 18  2  0
 18 19  1  0
 19 20  2  0
 20 21  1  0
 21 22  1  0
 22 23  2  0
 23 24  1  0
 24 25  2  0
 25 26  1  0
 26 27  2  0
 27 28  1  0
 28 29  2  0
 29 30  1  0
 30 31  2  0
 21 32  2  0
 32 33  1  0
 33 34  2  0
  9 35  1  0
 35 36  2  0
 36  6  1  0
 34 10  1  0
 34 15  1  0
 33 18  1  0
 31 22  1  0
 30 25  1  0
M  END
$$$$
