
     RDKit          3D

 45 50  0  0  0  0  0  0  0  0999 V2000
  -26.1826   16.4659  -24.6385 C   0  0  0  0  0  0  0  0  0  0  0  0
  -25.3684   16.8263  -25.7268 O   0  0  0  0  0  0  0  0  0  0  0  0
  -25.8487   17.7002  -26.6899 C   0  0  0  0  0  0  0  0  0  0  0  0
  -27.1587   18.1421  -26.6807 C   0  0  0  0  0  0  0  0  0  0  0  0
  -27.6061   19.0212  -27.6663 C   0  0  0  0  0  0  0  0  0  0  0  0
  -28.9080   19.4665  -27.6674 C   0  0  0  0  0  0  0  0  0  0  0  0
  -29.8692   19.0776  -26.7051 N   0  0  0  0  0  0  0  0  0  0  0  0
  -31.2942   19.2147  -26.9560 C   0  0  0  0  0  0  0  0  0  0  0  0
  -32.1438   19.0668  -25.7509 C   0  0  0  0  0  0  0  0  0  0  0  0
  -32.5208   17.6543  -25.5190 C   0  0  0  0  0  0  0  0  0  0  0  0
  -31.8512   16.6479  -26.2484 N   0  0  0  0  0  0  0  0  0  0  0  0
  -32.6059   15.3911  -26.0901 C   0  0  0  0  0  0  0  0  0  0  0  0
  -32.1778   14.4429  -27.1591 C   0  0  0  0  0  0  0  0  0  0  0  0
  -33.0227   13.1827  -27.1771 C   0  0  0  0  0  0  0  0  0  0  0  0
  -34.4641   13.5319  -27.4324 C   0  0  0  0  0  0  0  0  0  0  0  0
  -34.8926   14.4645  -26.3186 C   0  0  0  0  0  0  0  0  0  0  0  0
  -34.0751   15.7115  -26.2745 C   0  0  0  0  0  0  0  0  0  0  0  0
  -31.7758   16.8677  -27.6703 C   0  0  0  0  0  0  0  0  0  0  0  0
  -31.7864   18.3249  -28.0444 C   0  0  0  0  0  0  0  0  0  0  0  0
  -29.2900   20.3171  -28.6450 N   0  0  0  0  0  0  0  0  0  0  0  0
  -28.4699   20.7491  -29.6116 C   0  0  0  0  0  0  0  0  0  0  0  0
  -28.8666   21.6471  -30.6320 N   0  0  0  0  0  0  0  0  0  0  0  0
  -30.2871   21.8704  -30.7847 C   0  0  0  0  0  0  0  0  0  0  0  0
  -30.5639   23.2912  -30.3023 C   0  0  0  0  0  0  0  0  0  0  0  0
  -29.5304   24.1851  -30.9570 C   0  0  0  0  0  0  0  0  0  0  0  0
  -29.3810   23.8090  -32.3265 N   0  0  0  0  0  0  0  0  0  0  0  0
  -29.3942   24.9649  -33.2081 C   0  0  0  0  0  0  0  0  0  0  0  0
  -29.1785   24.5305  -34.6412 C   0  0  0  0  0  0  0  0  0  0  0  0
  -28.3264   25.9577  -32.8473 C   0  0  0  0  0  0  0  0  0  0  0  0
  -28.2490   22.9680  -32.6035 C   0  0  0  0  0  0  0  0  0  0  0  0
  -27.7754   22.2122  -31.3837 C   0  0  0  0  0  0  0  0  0  0  0  0
  -27.2093   20.3036  -29.5918 N   0  0  0  0  0  0  0  0  0  0  0  0
  -26.7445   19.4576  -28.6590 C   0  0  0  0  0  0  0  0  0  0  0  0
  -25.4526   18.9981  -28.6358 C   0  0  0  0  0  0  0  0  0  0  0  0
  -24.9826   18.1287  -27.6743 C   0  0  0  0  0  0  0  0  0  0  0  0
  -23.6799   17.6780  -27.6699 O   0  0  0  0  0  0  0  0  0  0  0  0
  -22.6734   18.2499  -28.4949 C   0  0  0  0  0  0  0  0  0  0  0  0
  -21.3406   17.5966  -28.1958 C   0  0  0  0  0  0  0  0  0  0  0  0
  -21.2834   16.2518  -28.8651 C   0  0  0  0  0  0  0  0  0  0  0  0
  -20.4386   16.1772  -29.9984 N   0  0  0  0  0  0  0  0  0  0  0  0
  -19.1250   15.6697  -29.7977 C   0  0  0  0  0  0  0  0  0  0  0  0
  -18.4990   15.3911  -31.1490 C   0  0  0  0  0  0  0  0  0  0  0  0
  -18.3542   16.6547  -31.9376 C   0  0  0  0  0  0  0  0  0  0  0  0
  -19.2318   17.7386  -31.4068 C   0  0  0  0  0  0  0  0  0  0  0  0
  -20.5662   17.2312  -30.9514 C   0  0  0  0  0  0  0  0  0  0  0  0
  1  2  1  0
  2  3  1  0
  3  4  2  0
  4  5  1  0
  5  6  2  0
  6  7  1  0
  7  8  1  0
  8  9  1  0
  9 10  1  0
 10 11  1  0
 11 12  1  0
 12 13  1  0
 13 14  1  0
 14 15  1  0
 15 16  1  0
 16 17  1  0
 11 18  1  0
 18 19  1  0
  6 20  1  0
 20 21  2  0
 21 22  1  0
 22 23  1  0
 23 24  1  0
 24 25  1  0
 25 26  1  0
 26 27  1  0
 27 28  1  0
 27 29  1  0
 26 30  1  0
 30 31  1  0
 21 32  1  0
 32 33  2  0
 33 34  1  0
 34 35  2  0
 35 36  1  0
 36 37  1  0
 37 38  1  0
 38 39  1  0
 39 40  1  0
 40 41  1  0
 41 42  1  0
 42 43  1  0
 43 44  1  0
 44 45  1  0
 35  3  1  0
 45 40  1  0
 33  5  1  0
 19  8  1  0
 31 22  1  0
 17 12  1  0
M  END
$$$$
