
     RDKit          3D

 18 19  0  0  0  0  0  0  0  0999 V2000
  -19.1186    3.0182  -33.6537 C   0  0  0  0  0  0  0  0  0  0  0  0
  -19.1581    1.7367  -34.2433 O   0  0  0  0  0  0  0  0  0  0  0  0
  -18.8145    0.6316  -33.4814 C   0  0  0  0  0  0  0  0  0  0  0  0
  -19.7874   -0.2148  -32.9941 C   0  0  0  0  0  0  0  0  0  0  0  0
  -19.3882   -1.2919  -32.2427 C   0  0  0  0  0  0  0  0  0  0  0  0
  -18.0519   -1.5160  -31.9842 C   0  0  0  0  0  0  0  0  0  0  0  0
  -17.7700   -2.5969  -31.1843 C   0  0  0  0  0  0  0  0  0  0  0  0
  -16.4352   -2.8102  -30.8780 C   0  0  0  0  0  0  0  0  0  0  0  0
  -15.4325   -2.0068  -31.3334 C   0  0  0  0  0  0  0  0  0  0  0  0
  -15.7330   -0.9271  -32.1370 C   0  0  0  0  0  0  0  0  0  0  0  0
  -14.6533   -0.1410  -32.7306 C   0  0  0  0  0  0  0  0  0  0  0  0
  -13.2710   -0.6109  -32.3651 C   0  0  0  0  0  0  0  0  0  0  0  0
  -12.5058    0.2137  -31.4958 N   0  0  0  0  0  0  0  0  0  0  0  0
  -12.1821    1.5730  -31.7302 C   0  0  0  0  0  0  0  0  0  0  0  0
  -11.5016    2.3127  -30.6232 C   0  0  0  0  0  0  0  0  0  0  0  0
  -12.4584    2.1193  -32.8220 O   0  0  0  0  0  0  0  0  0  0  0  0
  -17.0393   -0.6794  -32.4618 C   0  0  0  0  0  0  0  0  0  0  0  0
  -17.4658    0.3835  -33.2078 C   0  0  0  0  0  0  0  0  0  0  0  0
  1  2  1  0
  2  3  1  0
  3  4  2  0
  4  5  1  0
  5  6  2  0
  6  7  1  0
  7  8  2  0
  8  9  1  0
  9 10  2  0
 10 11  1  0
 11 12  1  0
 12 13  1  0
 13 14  1  0
 14 15  1  0
 14 16  2  0
 10 17  1  0
 17 18  2  0
 18  3  1  0
 17  6  1  0
M  END
$$$$
