
     RDKit          3D

 26 27  0  0  0  0  0  0  0  0999 V2000
  -31.6346   22.9703  -25.8594 N   0  0  0  0  0  0  0  0  0  0  0  0
  -30.9164   22.1581  -26.5341 C   0  0  0  0  0  0  0  0  0  0  0  0
  -30.0897   21.2391  -27.3084 N   0  0  0  0  0  0  0  0  0  0  0  0
  -29.6505   21.3373  -28.5048 C   0  0  0  0  0  0  0  0  0  0  0  0
  -29.5263   22.4807  -28.9353 N   0  0  0  0  0  0  0  0  0  0  0  0
  -29.4814   23.1480  -30.1126 C   0  0  0  0  0  0  0  0  0  0  0  0
  -30.1941   22.8744  -31.2230 C   0  0  0  0  0  0  0  0  0  0  0  0
  -29.6601   23.4498  -32.4289 C   0  0  0  0  0  0  0  0  0  0  0  0
  -28.5798   24.2255  -32.3879 N   0  0  0  0  0  0  0  0  0  0  0  0
  -27.8616   24.4590  -31.3153 C   0  0  0  0  0  0  0  0  0  0  0  0
  -28.2991   23.9165  -30.1220 C   0  0  0  0  0  0  0  0  0  0  0  0
  -28.9026   20.2285  -29.1266 N   0  0  0  0  0  0  0  0  0  0  0  0
  -28.4771   19.1852  -28.2526 C   0  0  0  0  0  0  0  0  0  0  0  0
  -27.4060   19.6064  -27.3441 C   0  0  0  0  0  0  0  0  0  0  0  0
  -26.2616   18.6209  -27.3006 C   0  0  0  0  0  0  0  0  0  0  0  0
  -26.5718   17.5721  -28.3375 C   0  0  0  0  0  0  0  0  0  0  0  0
  -25.5144   16.5235  -28.4036 C   0  0  0  0  0  0  0  0  0  0  0  0
  -25.8186   15.3525  -29.3810 C   0  0  0  0  0  0  0  0  0  0  0  0
  -24.5482   14.6444  -29.1541 O   0  0  0  0  0  0  0  0  0  0  0  0
  -24.7963   13.4889  -28.4215 C   0  0  0  0  0  0  0  0  0  0  0  0
  -26.0743   13.2376  -28.1130 C   0  0  0  0  0  0  0  0  0  0  0  0
  -26.3988   12.0641  -27.3914 C   0  0  0  0  0  0  0  0  0  0  0  0
  -25.3982   11.2138  -27.1126 C   0  0  0  0  0  0  0  0  0  0  0  0
  -25.8962    9.5546  -26.4926 Cl  0  0  0  0  0  0  0  0  0  0  0  0
  -24.1238   11.3786  -27.3789 C   0  0  0  0  0  0  0  0  0  0  0  0
  -23.7571   12.5948  -28.0644 C   0  0  0  0  0  0  0  0  0  0  0  0
  1  2  3  0
  2  3  1  0
  3  4  1  0
  4  5  2  0
  5  6  1  0
  6  7  2  0
  7  8  1  0
  8  9  2  0
  9 10  1  0
 10 11  2  0
  4 12  1  0
 12 13  1  0
 13 14  1  0
 14 15  1  0
 15 16  1  0
 16 17  1  0
 17 18  1  0
 18 19  1  0
 19 20  1  0
 20 21  2  0
 21 22  1  0
 22 23  2  0
 23 24  1  0
 23 25  1  0
 25 26  2  0
 11  6  1  0
 26 20  1  0
M  END
$$$$
