
     RDKit          3D

 26 28  0  0  0  0  0  0  0  0999 V2000
  -17.8116   47.0132  -20.5801 C   0  0  0  0  0  0  0  0  0  0  0  0
  -17.1599   46.0317  -21.3353 O   0  0  0  0  0  0  0  0  0  0  0  0
  -17.6840   45.5715  -22.5330 C   0  0  0  0  0  0  0  0  0  0  0  0
  -18.0649   46.5016  -23.4785 C   0  0  0  0  0  0  0  0  0  0  0  0
  -18.5883   46.0030  -24.6689 C   0  0  0  0  0  0  0  0  0  0  0  0
  -18.7139   44.6490  -24.8796 C   0  0  0  0  0  0  0  0  0  0  0  0
  -18.3147   43.7351  -23.8928 C   0  0  0  0  0  0  0  0  0  0  0  0
  -17.8029   44.2034  -22.7270 C   0  0  0  0  0  0  0  0  0  0  0  0
  -17.4160   43.3074  -21.6660 C   0  0  0  0  0  0  0  0  0  0  0  0
  -17.6266   41.9624  -21.7408 C   0  0  0  0  0  0  0  0  0  0  0  0
  -17.2945   41.0884  -20.6934 C   0  0  0  0  0  0  0  0  0  0  0  0
  -17.5697   39.7281  -20.8102 N   0  0  0  0  0  0  0  0  0  0  0  0
  -18.1901   39.1226  -21.9296 C   0  0  0  0  0  0  0  0  0  0  0  0
  -18.8457   39.7954  -22.9321 C   0  0  0  0  0  0  0  0  0  0  0  0
  -19.4078   39.1327  -24.0148 C   0  0  0  0  0  0  0  0  0  0  0  0
  -19.2967   37.7580  -24.0742 C   0  0  0  0  0  0  0  0  0  0  0  0
  -18.6536   37.0265  -23.1053 C   0  0  0  0  0  0  0  0  0  0  0  0
  -18.4977   35.5553  -23.1409 C   0  0  0  0  0  0  0  0  0  0  0  0
  -19.7886   34.6643  -22.3571 S   0  0  0  0  0  6  0  0  0  0  0  0
  -19.1705   33.0779  -21.9756 N   0  0  0  0  0  0  0  0  0  0  0  0
  -20.2733   35.2890  -21.0893 O   0  0  0  0  0  0  0  0  0  0  0  0
  -20.9824   34.4709  -23.2518 O   0  0  0  0  0  0  0  0  0  0  0  0
  -18.1143   37.7271  -22.0534 C   0  0  0  0  0  0  0  0  0  0  0  0
  -16.7431   41.6502  -19.5852 N   0  0  0  0  0  0  0  0  0  0  0  0
  -16.5280   42.9660  -19.4943 C   0  0  0  0  0  0  0  0  0  0  0  0
  -16.8568   43.7852  -20.5127 N   0  0  0  0  0  0  0  0  0  0  0  0
  1  2  1  0
  2  3  1  0
  3  4  2  0
  4  5  1  0
  5  6  2  0
  6  7  1  0
  7  8  2  0
  8  9  1  0
  9 10  2  0
 10 11  1  0
 11 12  1  0
 12 13  1  0
 13 14  2  0
 14 15  1  0
 15 16  2  0
 16 17  1  0
 17 18  1  0
 18 19  1  0
 19 20  1  0
 19 21  2  0
 19 22  2  0
 17 23  2  0
 11 24  2  0
 24 25  1  0
 25 26  2  0
  8  3  1  0
 26  9  1  0
 23 13  1  0
M  END
$$$$
