
     RDKit          3D

 18 19  0  0  0  0  0  0  0  0999 V2000
  -14.9532   20.7570  -55.7882 O   0  0  0  0  0  0  0  0  0  0  0  0
  -16.1988   20.8529  -56.0476 C   0  0  0  0  0  0  0  0  0  0  0  0
  -16.6319   21.0042  -57.3486 C   0  0  0  0  0  0  0  0  0  0  0  0
  -18.0092   21.1026  -57.5568 C   0  0  0  0  0  0  0  0  0  0  0  0
  -18.9235   21.0558  -56.5446 C   0  0  0  0  0  0  0  0  0  0  0  0
  -20.2492   21.1473  -56.7117 N   0  0  0  0  0  4  0  0  0  0  0  0
  -20.7312   21.3007  -58.0059 O   0  0  0  0  0  1  0  0  0  0  0  0
  -21.0667   21.0897  -55.6451 C   0  0  0  0  0  0  0  0  0  0  0  0
  -22.4284   21.1854  -55.8356 C   0  0  0  0  0  0  0  0  0  0  0  0
  -23.3245   21.1326  -54.7720 C   0  0  0  0  0  0  0  0  0  0  0  0
  -22.8473   20.9813  -53.4970 C   0  0  0  0  0  0  0  0  0  0  0  0
  -23.7159   20.9253  -52.4170 O   0  0  0  0  0  1  0  0  0  0  0  0
  -21.4900   20.8827  -53.2754 C   0  0  0  0  0  0  0  0  0  0  0  0
  -20.6003   20.9375  -54.3547 C   0  0  0  0  0  0  0  0  0  0  0  0
  -19.3042   20.8455  -54.1656 O   0  0  0  0  0  0  0  0  0  0  0  0
  -18.4477   20.8940  -55.1613 C   0  0  0  0  0  0  0  0  0  0  0  0
  -17.0816   20.7999  -54.9902 C   0  0  0  0  0  0  0  0  0  0  0  0
  -19.7946   21.0051  -55.5170 Na  0  0  0  0  0 15  0  0  0  0  0  0
  1  2  2  0
  2  3  1  0
  3  4  2  0
  4  5  1  0
  5  6  2  0
  6  7  1  0
  6  8  1  0
  8  9  2  0
  9 10  1  0
 10 11  2  0
 11 12  1  0
 11 13  1  0
 13 14  2  0
 14 15  1  0
 15 16  1  0
 16 17  2  0
 17  2  1  0
 16  5  1  0
 14  8  1  0
M  CHG  4   6   1   7  -1  12  -1  18   1
M  END
$$$$
