
     RDKit          3D

 37 40  0  0  0  0  0  0  0  0999 V2000
  -36.6170   12.3006  -24.8425 C   0  0  0  0  0  0  0  0  0  0  0  0
  -36.9825   13.2885  -23.8586 N   0  0  0  0  0  0  0  0  0  0  0  0
  -36.8567   14.7033  -24.1903 C   0  0  0  0  0  0  0  0  0  0  0  0
  -35.4693   14.8830  -24.7440 C   0  0  0  0  0  0  0  0  0  0  0  0
  -35.1749   16.2155  -24.9164 O   0  0  0  0  0  0  0  0  0  0  0  0
  -33.9809   16.7220  -25.3536 C   0  0  0  0  0  0  0  0  0  0  0  0
  -33.1942   17.6392  -24.6963 C   0  0  0  0  0  0  0  0  0  0  0  0
  -31.9790   18.0918  -25.2260 C   0  0  0  0  0  0  0  0  0  0  0  0
  -31.5191   17.6367  -26.4342 C   0  0  0  0  0  0  0  0  0  0  0  0
  -30.2463   18.1218  -26.9710 C   0  0  0  0  0  0  0  0  0  0  0  0
  -29.0957   17.2010  -26.8288 C   0  0  2  0  0  0  0  0  0  0  0  0
  -27.9020   17.8310  -27.3620 N   0  0  0  0  0  0  0  0  0  0  0  0
  -26.7606   18.2019  -26.6285 C   0  0  0  0  0  0  0  0  0  0  0  0
  -26.5916   17.7647  -25.3233 C   0  0  0  0  0  0  0  0  0  0  0  0
  -25.4636   18.0824  -24.5600 C   0  0  0  0  0  0  0  0  0  0  0  0
  -24.4869   18.8580  -25.1246 C   0  0  0  0  0  0  0  0  0  0  0  0
  -24.6254   19.3063  -26.4087 C   0  0  0  0  0  0  0  0  0  0  0  0
  -25.7639   18.9755  -27.1569 C   0  0  0  0  0  0  0  0  0  0  0  0
  -25.8687   19.5781  -28.4581 C   0  0  0  0  0  0  0  0  0  0  0  0
  -26.4290   20.6737  -28.7327 O   0  0  0  0  0  0  0  0  0  0  0  0
  -25.2948   18.9178  -29.6526 C   0  0  0  0  0  0  0  0  0  0  0  0
  -25.3177   17.5659  -29.8389 C   0  0  0  0  0  0  0  0  0  0  0  0
  -24.7335   16.9598  -30.9585 C   0  0  0  0  0  0  0  0  0  0  0  0
  -24.1105   17.7290  -31.9177 C   0  0  0  0  0  0  0  0  0  0  0  0
  -24.0855   19.0953  -31.7351 C   0  0  0  0  0  0  0  0  0  0  0  0
  -24.6645   19.6929  -30.6251 C   0  0  0  0  0  0  0  0  0  0  0  0
  -29.2372   15.8545  -27.4149 C   0  0  0  0  0  0  0  0  0  0  0  0
  -29.1929   15.7382  -28.6637 O   0  0  0  0  0  0  0  0  0  0  0  0
  -29.4241   14.6854  -26.6527 O   0  0  0  0  0  0  0  0  0  0  0  0
  -32.2965   16.7197  -27.1046 C   0  0  0  0  0  0  0  0  0  0  0  0
  -33.4898   16.2618  -26.6039 C   0  0  0  0  0  0  0  0  0  0  0  0
  -37.4599   12.9410  -22.5761 C   0  0  0  0  0  0  0  0  0  0  0  0
  -37.7387   11.6677  -22.1509 C   0  0  0  0  0  0  0  0  0  0  0  0
  -38.2063   11.4004  -20.8672 C   0  0  0  0  0  0  0  0  0  0  0  0
  -38.3835   12.4644  -20.0240 C   0  0  0  0  0  0  0  0  0  0  0  0
  -38.1024   13.7524  -20.4512 C   0  0  0  0  0  0  0  0  0  0  0  0
  -37.6592   13.9400  -21.6884 N   0  0  0  0  0  0  0  0  0  0  0  0
  1  2  1  0
  2  3  1  0
  3  4  1  0
  4  5  1  0
  5  6  1  0
  6  7  2  0
  7  8  1  0
  8  9  2  0
  9 10  1  0
 11 10  1  6
 11 12  1  0
 12 13  1  0
 13 14  2  0
 14 15  1  0
 15 16  2  0
 16 17  1  0
 17 18  2  0
 18 19  1  0
 19 20  2  0
 19 21  1  0
 21 22  2  0
 22 23  1  0
 23 24  2  0
 24 25  1  0
 25 26  2  0
 11 27  1  0
 27 28  2  0
 27 29  1  0
  9 30  1  0
 30 31  2  0
  2 32  1  0
 32 33  2  0
 33 34  1  0
 34 35  2  0
 35 36  1  0
 36 37  2  0
 31  6  1  0
 37 32  1  0
 18 13  1  0
 26 21  1  0
M  END
$$$$
