
     RDKit          3D

 25 27  0  0  0  0  0  0  0  0999 V2000
  -17.6006   -1.1168  -32.9435 O   0  0  0  0  0  0  0  0  0  0  0  0
  -17.8958   -0.1240  -32.1950 C   0  0  0  0  0  0  0  0  0  0  0  0
  -16.7781    0.5917  -31.6919 N   0  0  0  0  0  0  0  0  0  0  0  0
  -15.4281    0.2145  -31.9785 C   0  0  0  0  0  0  0  0  0  0  0  0
  -14.9927   -0.0840  -33.2533 C   0  0  0  0  0  0  0  0  0  0  0  0
  -13.6797   -0.4488  -33.5179 C   0  0  0  0  0  0  0  0  0  0  0  0
  -12.7699   -0.5196  -32.4845 C   0  0  0  0  0  0  0  0  0  0  0  0
  -11.4645   -0.8852  -32.7672 O   0  0  0  0  0  0  0  0  0  0  0  0
  -10.7052   -0.1351  -33.6373 C   0  0  0  0  0  0  0  0  0  0  0  0
  -10.2400   -0.7127  -34.7909 C   0  0  0  0  0  0  0  0  0  0  0  0
   -9.4764    0.0625  -35.6533 C   0  0  0  0  0  0  0  0  0  0  0  0
   -9.2065    1.3642  -35.3432 C   0  0  0  0  0  0  0  0  0  0  0  0
   -9.6597    1.9703  -34.1934 C   0  0  0  0  0  0  0  0  0  0  0  0
  -10.4289    1.1737  -33.3340 C   0  0  0  0  0  0  0  0  0  0  0  0
  -13.1860   -0.2228  -31.1891 C   0  0  0  0  0  0  0  0  0  0  0  0
  -14.4987    0.1364  -30.9614 C   0  0  0  0  0  0  0  0  0  0  0  0
  -19.2757    0.2173  -31.9025 C   0  0  0  0  0  0  0  0  0  0  0  0
  -20.3311   -0.5878  -32.2461 C   0  0  0  0  0  0  0  0  0  0  0  0
  -21.6451   -0.2589  -31.9655 C   0  0  0  0  0  0  0  0  0  0  0  0
  -21.8731    0.9233  -31.3181 C   0  0  0  0  0  0  0  0  0  0  0  0
  -20.8564    1.7637  -30.9526 C   0  0  0  0  0  0  0  0  0  0  0  0
  -21.1195    2.9873  -30.2803 N   0  0  0  0  0  4  0  0  0  0  0  0
  -22.2859    3.3020  -30.0295 O   0  0  0  0  0  0  0  0  0  0  0  0
  -20.0877    3.7983  -29.9202 O   0  0  0  0  0  1  0  0  0  0  0  0
  -19.5386    1.3986  -31.2527 C   0  0  0  0  0  0  0  0  0  0  0  0
  1  2  2  0
  2  3  1  0
  3  4  1  0
  4  5  2  0
  5  6  1  0
  6  7  2  0
  7  8  1  0
  8  9  1  0
  9 10  2  0
 10 11  1  0
 11 12  2  0
 12 13  1  0
 13 14  2  0
  7 15  1  0
 15 16  2  0
  2 17  1  0
 17 18  2  0
 18 19  1  0
 19 20  2  0
 20 21  1  0
 21 22  1  0
 22 23  2  0
 22 24  1  0
 21 25  2  0
 16  4  1  0
 25 17  1  0
 14  9  1  0
M  CHG  2  22   1  24  -1
M  END
$$$$
