
     RDKit          3D

 25 27  0  0  0  0  0  0  0  0999 V2000
  -25.4656   19.5320  -31.6913 O   0  0  0  0  0  0  0  0  0  0  0  0
  -24.5229   19.7698  -30.9062 C   0  0  0  0  0  0  0  0  0  0  0  0
  -24.8449   20.0492  -29.5603 N   0  0  0  0  0  0  0  0  0  0  0  0
  -26.1465   20.1956  -29.1611 O   0  0  0  0  0  0  0  0  0  0  0  0
  -26.1024   20.1495  -27.7512 C   0  0  0  0  0  0  0  0  0  0  0  0
  -27.5070   20.3942  -27.2068 C   0  0  0  0  0  0  0  0  0  0  0  0
  -28.4132   19.4893  -27.7501 O   0  0  0  0  0  0  0  0  0  0  0  0
  -23.1283   19.7600  -31.3636 C   0  0  0  0  0  0  0  0  0  0  0  0
  -22.1122   20.3446  -30.6523 C   0  0  0  0  0  0  0  0  0  0  0  0
  -20.8022   20.3345  -31.0839 C   0  0  0  0  0  0  0  0  0  0  0  0
  -20.5051   19.7099  -32.2805 C   0  0  0  0  0  0  0  0  0  0  0  0
  -19.3008   19.5407  -32.9595 C   0  0  0  0  0  0  0  0  0  0  0  0
  -19.6028   18.8579  -34.0696 N   0  0  0  0  0  0  0  0  0  0  0  0
  -20.9142   18.6140  -34.0862 C   0  0  0  0  0  0  0  0  0  0  0  0
  -21.4969   19.1424  -32.9694 N   0  0  0  0  0  0  0  0  0  0  0  0
  -22.7907   19.1434  -32.5590 C   0  0  0  0  0  0  0  0  0  0  0  0
  -23.7760   18.5130  -33.3605 N   0  0  0  0  0  0  0  0  0  0  0  0
  -23.5687   17.2013  -33.8632 C   0  0  0  0  0  0  0  0  0  0  0  0
  -22.8151   16.3009  -33.1258 C   0  0  0  0  0  0  0  0  0  0  0  0
  -22.6054   15.0254  -33.6006 C   0  0  0  0  0  0  0  0  0  0  0  0
  -23.1221   14.6093  -34.7918 C   0  0  0  0  0  0  0  0  0  0  0  0
  -22.8111   12.6770  -35.5232 I   0  0  0  0  0  0  0  0  0  0  0  0
  -23.8698   15.4905  -35.5315 C   0  0  0  0  0  0  0  0  0  0  0  0
  -24.0857   16.7752  -35.0616 C   0  0  0  0  0  0  0  0  0  0  0  0
  -24.8265   17.6469  -35.7955 F   0  0  0  0  0  0  0  0  0  0  0  0
  1  2  2  0
  2  3  1  0
  3  4  1  0
  4  5  1  0
  5  6  1  0
  6  7  1  0
  2  8  1  0
  8  9  1  0
  9 10  2  0
 10 11  1  0
 11 12  2  0
 12 13  1  0
 13 14  2  0
 14 15  1  0
 15 16  1  0
 16 17  1  0
 17 18  1  0
 18 19  2  0
 19 20  1  0
 20 21  2  0
 21 22  1  0
 21 23  1  0
 23 24  2  0
 24 25  1  0
 16  8  2  0
 24 18  1  0
 15 11  1  0
M  END
$$$$
