
     RDKit          3D

 37 39  0  0  0  0  0  0  0  0999 V2000
  -18.2892   47.8913  -26.8783 C   0  0  0  0  0  0  0  0  0  0  0  0
  -19.6060   47.1544  -26.6972 C   0  0  0  0  0  0  0  0  0  0  0  0
  -19.3996   45.7755  -26.3392 N   0  0  0  0  0  0  0  0  0  0  0  0
  -18.6947   45.3947  -25.1464 C   0  0  0  0  0  0  0  0  0  0  0  0
  -18.2541   46.3059  -24.4086 O   0  0  0  0  0  0  0  0  0  0  0  0
  -18.5419   43.9596  -24.8785 C   0  0  1  0  0  0  0  0  0  0  0  0
  -17.8614   43.6695  -23.7278 O   0  0  0  0  0  0  0  0  0  0  0  0
  -18.4149   42.5386  -23.1809 C   0  0  1  0  0  0  0  0  0  0  0  0
  -18.0744   42.3355  -21.8111 N   0  0  0  0  0  0  0  0  0  0  0  0
  -17.9703   43.2217  -20.8336 C   0  0  0  0  0  0  0  0  0  0  0  0
  -17.6240   42.6253  -19.6699 N   0  0  0  0  0  0  0  0  0  0  0  0
  -17.5046   41.3055  -19.9253 C   0  0  0  0  0  0  0  0  0  0  0  0
  -17.1828   40.2008  -19.1684 C   0  0  0  0  0  0  0  0  0  0  0  0
  -16.8826   40.3205  -17.7849 N   0  0  0  0  0  0  0  0  0  0  0  0
  -17.1423   38.9736  -19.7146 N   0  0  0  0  0  0  0  0  0  0  0  0
  -17.4170   38.7951  -21.0216 C   0  0  0  0  0  0  0  0  0  0  0  0
  -17.3679   37.4777  -21.5839 N   0  0  0  0  0  0  0  0  0  0  0  0
  -17.6539   37.2426  -22.9701 C   0  0  0  0  0  0  0  0  0  0  0  0
  -17.5670   35.8063  -23.3838 C   0  0  0  0  0  0  0  0  0  0  0  0
  -18.5223   34.9618  -22.6346 C   0  0  0  0  0  0  0  0  0  0  0  0
  -18.2410   34.2756  -21.4857 C   0  0  0  0  0  0  0  0  0  0  0  0
  -19.2102   33.5212  -20.8525 C   0  0  0  0  0  0  0  0  0  0  0  0
  -20.4794   33.4343  -21.3525 C   0  0  0  0  0  0  0  0  0  0  0  0
  -21.5722   32.6229  -20.7600 C   0  0  0  0  0  0  0  0  0  0  0  0
  -21.8189   31.3123  -21.4273 C   0  0  0  0  0  0  0  0  0  0  0  0
  -20.6870   30.3884  -21.4191 C   0  0  0  0  0  0  0  0  0  0  0  0
  -19.6113   30.6723  -20.8736 O   0  0  0  0  0  0  0  0  0  0  0  0
  -20.7805   29.1180  -22.0429 O   0  0  0  0  0  0  0  0  0  0  0  0
  -20.7883   34.1207  -22.5147 C   0  0  0  0  0  0  0  0  0  0  0  0
  -19.8239   34.8702  -23.1418 C   0  0  0  0  0  0  0  0  0  0  0  0
  -17.7292   39.8726  -21.7527 N   0  0  0  0  0  0  0  0  0  0  0  0
  -17.7896   41.1333  -21.2735 C   0  0  0  0  0  0  0  0  0  0  0  0
  -19.9122   42.8321  -23.3493 C   0  0  2  0  0  0  0  0  0  0  0  0
  -20.6689   41.6846  -23.2037 O   0  0  0  0  0  0  0  0  0  0  0  0
  -19.9220   43.3550  -24.7701 C   0  0  2  0  0  0  0  0  0  0  0  0
  -19.9982   42.2960  -25.6600 O   0  0  0  0  0  0  0  0  0  0  0  0
  -19.0190   38.6172  -22.6675 Cl  0  0  0  0  0  0  0  0  0  0  0  0
  1  2  1  0
  2  3  1  0
  3  4  1  0
  4  5  2  0
  6  4  1  1
  6  7  1  0
  7  8  1  0
  8  9  1  1
  9 10  1  0
 10 11  2  0
 11 12  1  0
 12 13  2  0
 13 14  1  0
 13 15  1  0
 15 16  2  0
 16 17  1  0
 17 18  1  0
 18 19  1  0
 19 20  1  0
 20 21  2  0
 21 22  1  0
 22 23  2  0
 23 24  1  0
 24 25  1  0
 25 26  1  0
 26 27  2  0
 26 28  1  0
 23 29  1  0
 29 30  2  0
 16 31  1  0
 31 32  2  0
  8 33  1  0
 33 34  1  6
 33 35  1  0
 35 36  1  6
 35  6  1  0
 32  9  1  0
 32 12  1  0
 30 20  1  0
M  END
$$$$
