
     RDKit          3D

 33 37  0  0  0  0  0  0  0  0999 V2000
  -19.4014   40.5590  -19.6405 N   0  0  0  0  0  0  0  0  0  0  0  0
  -18.7635   39.2960  -19.6746 C   0  0  0  0  0  0  0  0  0  0  0  0
  -18.0893   38.8816  -18.5903 N   0  0  0  0  0  0  0  0  0  0  0  0
  -17.4556   37.6878  -18.5573 C   0  0  0  0  0  0  0  0  0  0  0  0
  -17.4915   36.8698  -19.6440 N   0  0  0  0  0  0  0  0  0  0  0  0
  -18.1550   37.2282  -20.7712 C   0  0  0  0  0  0  0  0  0  0  0  0
  -18.7880   38.4471  -20.7723 C   0  0  0  0  0  0  0  0  0  0  0  0
  -19.3567   38.5734  -21.9622 N   0  0  0  0  0  0  0  0  0  0  0  0
  -19.0843   37.4548  -22.6916 C   0  0  0  0  0  0  0  0  0  0  0  0
  -19.5210   37.1896  -24.0224 N   0  0  0  0  0  0  0  0  0  0  0  0
  -20.3780   38.0839  -24.7743 C   0  0  0  0  0  0  0  0  0  0  0  0
  -19.7373   39.3887  -25.0139 C   0  0  0  0  0  0  0  0  0  0  0  0
  -18.4557   39.4716  -25.4889 C   0  0  0  0  0  0  0  0  0  0  0  0
  -17.8557   40.6906  -25.7287 C   0  0  0  0  0  0  0  0  0  0  0  0
  -18.5392   41.8792  -25.4936 C   0  0  0  0  0  0  0  0  0  0  0  0
  -17.8921   43.1459  -25.7607 C   0  0  0  0  0  0  0  0  0  0  0  0
  -18.6597   44.2909  -25.8452 C   0  0  0  0  0  0  0  0  0  0  0  0
  -18.0151   45.4781  -26.0940 C   0  0  0  0  0  0  0  0  0  0  0  0
  -16.6617   45.6001  -26.2634 C   0  0  0  0  0  0  0  0  0  0  0  0
  -15.8928   44.4412  -26.1770 C   0  0  0  0  0  0  0  0  0  0  0  0
  -16.5166   43.2414  -25.9288 C   0  0  0  0  0  0  0  0  0  0  0  0
  -19.8240   41.7816  -25.0166 C   0  0  0  0  0  0  0  0  0  0  0  0
  -20.4323   40.5433  -24.7732 C   0  0  0  0  0  0  0  0  0  0  0  0
  -18.3455   36.6145  -21.9742 N   0  0  0  0  0  0  0  0  0  0  0  0
  -17.8052   35.3295  -22.2346 C   0  0  2  0  0  0  0  0  0  0  0  0
  -17.6712   35.0461  -23.6126 O   0  0  0  0  0  0  0  0  0  0  0  0
  -16.9820   33.8151  -23.5055 C   0  0  2  0  0  0  0  0  0  0  0  0
  -16.8449   33.1362  -24.8338 C   0  0  0  0  0  0  0  0  0  0  0  0
  -18.0865   32.8298  -25.3374 O   0  0  0  0  0  0  0  0  0  0  0  0
  -17.9451   33.0390  -22.6032 C   0  0  1  0  0  0  0  0  0  0  0  0
  -17.2669   32.1156  -21.8195 O   0  0  0  0  0  0  0  0  0  0  0  0
  -18.5649   34.1625  -21.7530 C   0  0  1  0  0  0  0  0  0  0  0  0
  -18.2427   33.8665  -20.4323 O   0  0  0  0  0  0  0  0  0  0  0  0
  1  2  1  0
  2  3  2  0
  3  4  1  0
  4  5  2  0
  5  6  1  0
  6  7  2  0
  7  8  1  0
  8  9  2  0
  9 10  1  0
 10 11  1  0
 11 12  1  0
 12 13  2  0
 13 14  1  0
 14 15  2  0
 15 16  1  0
 16 17  2  0
 17 18  1  0
 18 19  2  0
 19 20  1  0
 20 21  2  0
 15 22  1  0
 22 23  2  0
  9 24  1  0
 25 24  1  6
 25 26  1  0
 26 27  1  0
 27 28  1  6
 28 29  1  0
 27 30  1  0
 30 31  1  1
 30 32  1  0
 32 33  1  1
  7  2  1  0
 23 12  1  0
 32 25  1  0
 24  6  1  0
 21 16  1  0
M  END
$$$$
