
     RDKit          3D

 16 17  0  0  0  0  0  0  0  0999 V2000
  -11.8117   46.3728  -18.7620 C   0  0  0  0  0  0  0  0  0  0  0  0
  -12.6316   45.5387  -19.7213 C   0  0  0  0  0  0  0  0  0  0  0  0
  -13.8640   45.1380  -19.2048 O   0  0  0  0  0  0  0  0  0  0  0  0
  -14.7594   44.3086  -19.7993 C   0  0  0  0  0  0  0  0  0  0  0  0
  -15.2420   44.5467  -21.0593 C   0  0  0  0  0  0  0  0  0  0  0  0
  -16.1484   43.7238  -21.6844 C   0  0  0  0  0  0  0  0  0  0  0  0
  -16.6306   42.5804  -21.0497 C   0  0  0  0  0  0  0  0  0  0  0  0
  -17.4841   41.6870  -21.4761 N   0  0  0  0  0  0  0  0  0  0  0  0
  -17.9041   40.7205  -20.9636 C   0  0  0  0  0  0  0  0  0  0  0  0
  -18.9923   39.3585  -21.1921 S   0  0  0  0  0  6  0  0  0  0  0  0
  -18.0698   38.0442  -21.7934 N   0  0  0  0  0  0  0  0  0  0  0  0
  -19.6447   38.9876  -19.8702 O   0  0  0  0  0  0  0  0  0  0  0  0
  -20.0993   39.7718  -22.1119 O   0  0  0  0  0  0  0  0  0  0  0  0
  -16.9618   40.8405  -19.3053 S   0  0  0  0  0  0  0  0  0  0  0  0
  -16.1352   42.3470  -19.7716 C   0  0  0  0  0  0  0  0  0  0  0  0
  -15.2186   43.1835  -19.1453 C   0  0  0  0  0  0  0  0  0  0  0  0
  1  2  1  0
  2  3  1  0
  3  4  1  0
  4  5  2  0
  5  6  1  0
  6  7  2  0
  7  8  1  0
  8  9  2  0
  9 10  1  0
 10 11  1  0
 10 12  2  0
 10 13  2  0
  9 14  1  0
 14 15  1  0
 15 16  2  0
 16  4  1  0
 15  7  1  0
M  END
$$$$
