
     RDKit          3D

 20 22  0  0  0  0  0  0  0  0999 V2000
  -15.6753   45.4980  -20.9493 C   0  0  0  0  0  0  0  0  0  0  0  0
  -16.7011   45.2314  -21.9622 N   0  0  0  0  0  0  0  0  0  0  0  0
  -17.3014   46.3502  -22.6093 C   0  0  0  0  0  0  0  0  0  0  0  0
  -17.0317   43.8770  -22.2353 C   0  0  0  0  0  0  0  0  0  0  0  0
  -17.9796   43.5393  -23.1758 C   0  0  0  0  0  0  0  0  0  0  0  0
  -18.3173   42.2402  -23.4587 C   0  0  0  0  0  0  0  0  0  0  0  0
  -17.6803   41.2025  -22.7708 C   0  0  0  0  0  0  0  0  0  0  0  0
  -18.0086   39.8235  -23.1097 C   0  0  0  0  0  0  0  0  0  0  0  0
  -18.0487   38.8929  -22.1992 C   0  0  0  0  0  0  0  0  0  0  0  0
  -17.6287   39.0015  -20.8076 C   0  0  0  0  0  0  0  0  0  0  0  0
  -17.1702   39.9885  -20.1751 O   0  0  0  0  0  0  0  0  0  0  0  0
  -17.8505   37.6961  -20.2540 N   0  0  0  0  0  0  0  0  0  0  0  0
  -18.3775   36.8492  -21.2622 C   0  0  0  0  0  0  0  0  0  0  0  0
  -18.7575   35.5103  -21.2375 C   0  0  0  0  0  0  0  0  0  0  0  0
  -19.2519   34.8917  -22.3648 C   0  0  0  0  0  0  0  0  0  0  0  0
  -19.3925   35.5632  -23.5602 C   0  0  0  0  0  0  0  0  0  0  0  0
  -19.0197   36.8878  -23.5958 C   0  0  0  0  0  0  0  0  0  0  0  0
  -18.5218   37.5085  -22.4581 C   0  0  0  0  0  0  0  0  0  0  0  0
  -16.7300   41.5273  -21.8290 C   0  0  0  0  0  0  0  0  0  0  0  0
  -16.4283   42.8463  -21.5824 C   0  0  0  0  0  0  0  0  0  0  0  0
  1  2  1  0
  2  3  1  0
  2  4  1  0
  4  5  2  0
  5  6  1  0
  6  7  2  0
  7  8  1  0
  8  9  2  0
  9 10  1  0
 10 11  2  0
 10 12  1  0
 12 13  1  0
 13 14  2  0
 14 15  1  0
 15 16  2  0
 16 17  1  0
 17 18  2  0
  7 19  1  0
 19 20  2  0
 20  4  1  0
 18  9  1  0
 18 13  1  0
M  END
$$$$
