
     RDKit          3D

 15 16  0  0  0  0  0  0  0  0999 V2000
  -18.3009   42.9881  -20.7518 N   0  0  0  0  0  0  0  0  0  0  0  0
  -18.3538   41.5934  -21.0145 C   0  0  0  0  0  0  0  0  0  0  0  0
  -19.0100   41.1196  -22.1319 C   0  0  0  0  0  0  0  0  0  0  0  0
  -19.0563   39.7471  -22.3810 C   0  0  0  0  0  0  0  0  0  0  0  0
  -18.4797   38.8654  -21.5645 N   0  0  0  0  0  0  0  0  0  0  0  0
  -18.4800   37.4528  -21.7448 C   0  0  2  0  0  0  0  0  0  0  0  0
  -17.1666   36.7982  -21.2906 C   0  0  0  0  0  0  0  0  0  0  0  0
  -17.5327   35.1398  -22.0070 S   0  0  0  0  0  0  0  0  0  0  0  0
  -18.7705   35.7803  -23.2085 C   0  0  2  0  0  0  0  0  0  0  0  0
  -18.2030   35.4282  -24.5879 C   0  0  0  0  0  0  0  0  0  0  0  0
  -19.1026   35.7368  -25.5991 O   0  0  0  0  0  0  0  0  0  0  0  0
  -18.6573   37.1384  -23.0574 O   0  0  0  0  0  0  0  0  0  0  0  0
  -17.8412   39.3617  -20.4729 C   0  0  0  0  0  0  0  0  0  0  0  0
  -17.2751   38.5502  -19.6642 O   0  0  0  0  0  0  0  0  0  0  0  0
  -17.7848   40.6719  -20.2152 N   0  0  0  0  0  0  0  0  0  0  0  0
  1  2  1  0
  2  3  1  0
  3  4  2  0
  4  5  1  0
  6  5  1  6
  6  7  1  0
  7  8  1  0
  8  9  1  0
  9 10  1  6
 10 11  1  0
  9 12  1  0
  5 13  1  0
 13 14  2  0
 13 15  1  0
 15  2  2  0
 12  6  1  0
M  END
$$$$
