
     RDKit          3D

 34 37  0  0  0  0  0  0  0  0999 V2000
  -18.3432   17.7418  -36.1247 C   0  0  0  0  0  0  0  0  0  0  0  0
  -17.4638   17.1363  -35.0956 C   0  0  0  0  0  0  0  0  0  0  0  0
  -16.1936   16.6954  -35.3953 C   0  0  0  0  0  0  0  0  0  0  0  0
  -15.4012   16.1480  -34.4605 N   0  0  0  0  0  0  0  0  0  0  0  0
  -15.8225   16.0025  -33.1592 C   0  0  0  0  0  0  0  0  0  0  0  0
  -14.9831   15.4294  -32.1972 N   0  0  0  0  0  0  0  0  0  0  0  0
  -15.2398   15.2024  -30.8279 C   0  0  0  0  0  0  0  0  0  0  0  0
  -16.3798   15.6144  -30.1887 C   0  0  0  0  0  0  0  0  0  0  0  0
  -16.5960   15.3715  -28.8377 C   0  0  0  0  0  0  0  0  0  0  0  0
  -15.6778   14.7070  -28.0776 C   0  0  0  0  0  0  0  0  0  0  0  0
  -15.8547   14.4542  -26.7651 F   0  0  0  0  0  0  0  0  0  0  0  0
  -14.5160   14.2846  -28.7196 C   0  0  0  0  0  0  0  0  0  0  0  0
  -14.3040   14.5219  -30.0413 C   0  0  0  0  0  0  0  0  0  0  0  0
  -12.8331   13.9720  -30.7961 Cl  0  0  0  0  0  0  0  0  0  0  0  0
  -17.0436   16.4365  -32.9131 N   0  0  0  0  0  0  0  0  0  0  0  0
  -17.8864   16.9923  -33.7985 C   0  0  0  0  0  0  0  0  0  0  0  0
  -19.2209   17.4354  -33.4011 C   0  0  0  0  0  0  0  0  0  0  0  0
  -20.4192   16.9213  -33.8618 C   0  0  0  0  0  0  0  0  0  0  0  0
  -21.4439   17.5924  -33.2601 N   0  0  0  0  0  0  0  0  0  0  0  0
  -20.9497   18.5213  -32.4275 C   0  0  0  0  0  0  0  0  0  0  0  0
  -21.7723   19.4158  -31.6256 C   0  0  0  0  0  0  0  0  0  0  0  0
  -22.6322   20.1809  -32.1315 O   0  0  0  0  0  0  0  0  0  0  0  0
  -21.6495   19.4779  -30.1974 N   0  0  0  0  0  0  0  0  0  0  0  0
  -22.5105   20.2825  -29.3686 C   0  0  2  0  0  0  0  0  0  0  0  0
  -21.7562   20.9773  -28.2568 C   0  0  0  0  0  0  0  0  0  0  0  0
  -22.5532   21.9980  -27.7511 O   0  0  0  0  0  0  0  0  0  0  0  0
  -23.6384   19.5000  -28.8003 C   0  0  0  0  0  0  0  0  0  0  0  0
  -24.8833   19.4635  -29.3933 C   0  0  0  0  0  0  0  0  0  0  0  0
  -25.9291   18.7291  -28.8534 C   0  0  0  0  0  0  0  0  0  0  0  0
  -25.7629   18.0020  -27.6944 C   0  0  0  0  0  0  0  0  0  0  0  0
  -24.5225   18.0319  -27.0940 C   0  0  0  0  0  0  0  0  0  0  0  0
  -24.2953   17.1150  -25.6233 Cl  0  0  0  0  0  0  0  0  0  0  0  0
  -23.4897   18.7649  -27.6387 C   0  0  0  0  0  0  0  0  0  0  0  0
  -19.5814   18.4292  -32.5101 C   0  0  0  0  0  0  0  0  0  0  0  0
  1  2  1  0
  2  3  2  0
  3  4  1  0
  4  5  2  0
  5  6  1  0
  6  7  1  0
  7  8  2  0
  8  9  1  0
  9 10  2  0
 10 11  1  0
 10 12  1  0
 12 13  2  0
 13 14  1  0
  5 15  1  0
 15 16  2  0
 16 17  1  0
 17 18  2  0
 18 19  1  0
 19 20  1  0
 20 21  1  0
 21 22  2  0
 21 23  1  0
 23 24  1  0
 24 25  1  1
 25 26  1  0
 24 27  1  0
 27 28  2  0
 28 29  1  0
 29 30  2  0
 30 31  1  0
 31 32  1  0
 31 33  2  0
 20 34  2  0
 16  2  1  0
 34 17  1  0
 13  7  1  0
 33 27  1  0
M  END
$$$$
