
     RDKit          3D

 33 36  0  0  0  0  0  0  0  0999 V2000
  -27.1659   25.5088  -33.0398 O   0  0  0  0  0  0  0  0  0  0  0  0
  -26.1196   24.7780  -33.1125 C   0  0  0  0  0  0  0  0  0  0  0  0
  -25.1924   25.0588  -34.1525 N   0  0  0  0  0  0  0  0  0  0  0  0
  -25.4641   24.7552  -35.5313 C   0  0  0  0  0  0  0  0  0  0  0  0
  -26.0098   23.5459  -35.9042 C   0  0  0  0  0  0  0  0  0  0  0  0
  -26.2489   23.3140  -37.2462 C   0  0  0  0  0  0  0  0  0  0  0  0
  -25.9533   24.2617  -38.2041 C   0  0  0  0  0  0  0  0  0  0  0  0
  -25.4213   25.4230  -37.7742 N   0  0  0  0  0  0  0  0  0  0  0  0
  -25.1860   25.6594  -36.4833 N   0  0  0  0  0  0  0  0  0  0  0  0
  -25.9281   23.7394  -32.1751 N   0  0  0  0  0  0  0  0  0  0  0  0
  -24.5862   23.2872  -31.8920 C   0  0  0  0  0  0  0  0  0  0  0  0
  -24.5481   22.8449  -30.4473 C   0  0  0  0  0  0  0  0  0  0  0  0
  -25.4416   21.6279  -30.3610 C   0  0  0  0  0  0  0  0  0  0  0  0
  -25.0761   20.6338  -29.6349 C   0  0  0  0  0  0  0  0  0  0  0  0
  -25.5077   20.2594  -28.2982 C   0  0  0  0  0  0  0  0  0  0  0  0
  -25.3939   21.0474  -27.1778 C   0  0  0  0  0  0  0  0  0  0  0  0
  -25.8212   20.6256  -25.9156 C   0  0  0  0  0  0  0  0  0  0  0  0
  -26.3801   19.3793  -25.7646 C   0  0  0  0  0  0  0  0  0  0  0  0
  -26.5126   18.5543  -26.8725 C   0  0  0  0  0  0  0  0  0  0  0  0
  -27.0861   17.2992  -26.6684 O   0  0  0  0  0  0  0  0  0  0  0  0
  -28.4684   17.1616  -26.7543 C   0  0  0  0  0  0  0  0  0  0  0  0
  -29.2693   18.2813  -26.8203 C   0  0  0  0  0  0  0  0  0  0  0  0
  -30.6406   18.1952  -26.9062 C   0  0  0  0  0  0  0  0  0  0  0  0
  -31.2368   16.9430  -26.9270 C   0  0  0  0  0  0  0  0  0  0  0  0
  -32.7239   16.7961  -27.0191 C   0  0  0  0  0  0  0  0  0  0  0  0
  -33.2865   17.9693  -27.4812 F   0  0  0  0  0  0  0  0  0  0  0  0
  -33.2031   16.4837  -25.7618 F   0  0  0  0  0  0  0  0  0  0  0  0
  -33.0086   15.7835  -27.9329 F   0  0  0  0  0  0  0  0  0  0  0  0
  -30.4029   15.8502  -26.8592 C   0  0  0  0  0  0  0  0  0  0  0  0
  -29.0646   15.9598  -26.7758 N   0  0  0  0  0  0  0  0  0  0  0  0
  -26.0848   18.9967  -28.0915 C   0  0  0  0  0  0  0  0  0  0  0  0
  -26.7009   21.6776  -31.1151 C   0  0  0  0  0  0  0  0  0  0  0  0
  -27.0324   23.1220  -31.5128 C   0  0  0  0  0  0  0  0  0  0  0  0
  1  2  2  0
  2  3  1  0
  3  4  1  0
  4  5  2  0
  5  6  1  0
  6  7  2  0
  7  8  1  0
  8  9  2  0
  2 10  1  0
 10 11  1  0
 11 12  1  0
 12 13  1  0
 13 14  2  3
 14 15  1  0
 15 16  2  0
 16 17  1  0
 17 18  2  0
 18 19  1  0
 19 20  1  0
 20 21  1  0
 21 22  2  0
 22 23  1  0
 23 24  2  0
 24 25  1  0
 25 26  1  0
 25 27  1  0
 25 28  1  0
 24 29  1  0
 29 30  2  0
 19 31  2  0
 13 32  1  0
 32 33  1  0
  9  4  1  0
 33 10  1  0
 31 15  1  0
 30 21  1  0
M  END
$$$$
