
     RDKit          3D

 29 30  0  0  0  0  0  0  0  0999 V2000
  -18.1345    3.1413  -32.3305 C   0  0  0  0  0  0  0  0  0  0  0  0
  -18.2117    1.9873  -33.2023 N   0  0  0  0  0  0  0  0  0  0  0  0
  -18.9760    2.0764  -34.4077 C   0  0  0  0  0  0  0  0  0  0  0  0
  -17.5272    0.7839  -32.8549 C   0  0  0  0  0  0  0  0  0  0  0  0
  -16.7898    0.6771  -31.7100 C   0  0  0  0  0  0  0  0  0  0  0  0
  -16.1060   -0.4584  -31.3275 C   0  0  0  0  0  0  0  0  0  0  0  0
  -16.1609   -1.5717  -32.1481 C   0  0  0  0  0  0  0  0  0  0  0  0
  -15.4684   -2.7877  -31.7279 C   0  0  0  0  0  0  0  0  0  0  0  0
  -14.6247   -3.4596  -32.4739 C   0  0  0  0  0  0  0  0  0  0  0  0
  -13.9478   -4.6901  -32.0353 C   0  0  0  0  0  0  0  0  0  0  0  0
  -13.0551   -5.3049  -32.8014 C   0  0  0  0  0  0  0  0  0  0  0  0
  -12.7145   -4.7755  -34.1147 C   0  0  0  0  0  0  0  0  0  0  0  0
  -11.8603   -5.3292  -34.8906 N   0  0  0  0  0  4  0  0  0  0  0  0
  -11.5680   -4.7587  -36.1730 C   0  0  0  0  0  0  0  0  0  0  0  0
  -11.1956   -6.5301  -34.4643 C   0  0  0  0  0  0  0  0  0  0  0  0
  -13.3839   -3.5528  -34.5574 C   0  0  0  0  0  0  0  0  0  0  0  0
  -14.2812   -2.9274  -33.7950 C   0  0  0  0  0  0  0  0  0  0  0  0
  -15.7273   -3.2040  -30.3514 C   0  0  0  0  0  0  0  0  0  0  0  0
  -17.0449   -3.3615  -29.9150 C   0  0  0  0  0  0  0  0  0  0  0  0
  -17.3233   -3.7121  -28.6315 C   0  0  0  0  0  0  0  0  0  0  0  0
  -16.3619   -3.9316  -27.6944 C   0  0  0  0  0  0  0  0  0  0  0  0
  -16.6924   -4.2962  -26.3653 N   0  0  0  0  0  0  0  0  0  0  0  0
  -18.0843   -4.4362  -26.0086 C   0  0  0  0  0  0  0  0  0  0  0  0
  -15.6291   -4.5213  -25.3898 C   0  0  0  0  0  0  0  0  0  0  0  0
  -15.0388   -3.7819  -28.0994 C   0  0  0  0  0  0  0  0  0  0  0  0
  -14.7548   -3.4247  -29.4060 C   0  0  0  0  0  0  0  0  0  0  0  0
  -16.9062   -1.4881  -33.3200 C   0  0  0  0  0  0  0  0  0  0  0  0
  -17.5775   -0.3345  -33.6704 C   0  0  0  0  0  0  0  0  0  0  0  0
  -15.5185   -2.5523  -31.5234 Cl  0  0  0  0  0 15  0  0  0  0  0  0
  1  2  1  0
  2  3  1  0
  2  4  1  0
  4  5  2  0
  5  6  1  0
  6  7  2  0
  7  8  1  0
  8  9  2  3
  9 10  1  0
 10 11  2  0
 11 12  1  0
 12 13  2  3
 13 14  1  0
 13 15  1  0
 12 16  1  0
 16 17  2  0
  8 18  1  0
 18 19  2  0
 19 20  1  0
 20 21  2  0
 21 22  1  0
 22 23  1  0
 22 24  1  0
 21 25  1  0
 25 26  2  0
  7 27  1  0
 27 28  2  0
 28  4  1  0
 17  9  1  0
 26 18  1  0
M  CHG  2  13   1  29  -1
M  END
$$$$
