
     RDKit          3D

 22 23  0  0  0  0  0  0  0  0999 V2000
  -16.0019   44.2458  -24.0277 C   0  0  0  0  0  0  0  0  0  0  0  0
  -17.1786   43.3408  -24.2449 C   0  0  0  0  0  0  0  0  0  0  0  0
  -17.8494   43.3980  -25.2881 O   0  0  0  0  0  0  0  0  0  0  0  0
  -17.5136   42.3866  -23.1893 C   0  0  0  0  0  0  0  0  0  0  0  0
  -16.8040   42.3250  -22.0198 C   0  0  0  0  0  0  0  0  0  0  0  0
  -17.1428   41.4092  -21.0328 C   0  0  0  0  0  0  0  0  0  0  0  0
  -18.2078   40.5472  -21.2278 C   0  0  0  0  0  0  0  0  0  0  0  0
  -18.6557   39.3940  -20.0172 S   0  0  0  0  0  6  0  0  0  0  0  0
  -20.0770   38.9924  -20.2395 O   0  0  0  0  0  0  0  0  0  0  0  0
  -18.4678   40.0264  -18.6705 O   0  0  0  0  0  0  0  0  0  0  0  0
  -17.6705   37.9686  -20.1055 N   0  0  0  0  0  0  0  0  0  0  0  0
  -17.7043   37.1232  -21.2393 C   0  0  0  0  0  0  0  0  0  0  0  0
  -17.8026   37.6470  -22.3706 O   0  0  0  0  0  0  0  0  0  0  0  0
  -17.6272   35.7231  -21.0714 N   0  0  0  0  0  0  0  0  0  0  0  0
  -17.5821   34.8772  -22.2285 C   0  0  0  0  0  0  0  0  0  0  0  0
  -18.9423   34.5928  -22.8074 C   0  0  0  0  0  0  0  0  0  0  0  0
  -19.4537   33.2210  -22.4558 C   0  0  0  0  0  0  0  0  0  0  0  0
  -18.5214   32.1159  -22.8202 C   0  0  0  0  0  0  0  0  0  0  0  0
  -17.1255   32.6396  -23.0669 C   0  0  0  0  0  0  0  0  0  0  0  0
  -16.8277   33.5990  -21.9067 C   0  0  0  0  0  0  0  0  0  0  0  0
  -18.9292   40.5966  -22.3955 C   0  0  0  0  0  0  0  0  0  0  0  0
  -18.5745   41.5156  -23.3635 C   0  0  0  0  0  0  0  0  0  0  0  0
  1  2  1  0
  2  3  2  0
  2  4  1  0
  4  5  2  0
  5  6  1  0
  6  7  2  0
  7  8  1  0
  8  9  2  0
  8 10  2  0
  8 11  1  0
 11 12  1  0
 12 13  2  0
 12 14  1  0
 14 15  1  0
 15 16  1  0
 16 17  1  0
 17 18  1  0
 18 19  1  0
 19 20  1  0
  7 21  1  0
 21 22  2  0
 22  4  1  0
 20 15  1  0
M  END
$$$$
