
     RDKit          3D

 37 42  0  0  0  0  0  0  0  0999 V2000
  -14.8839   15.7262  -30.0439 C   0  0  0  0  0  0  0  0  0  0  0  0
  -15.6511   16.7581  -30.9058 C   0  0  0  0  0  0  0  0  0  0  0  0
  -15.3702   18.1269  -30.7576 C   0  0  0  0  0  0  0  0  0  0  0  0
  -16.4949   18.9016  -31.9437 S   0  0  0  0  0  0  0  0  0  0  0  0
  -17.2297   17.3347  -32.5223 C   0  0  0  0  0  0  0  0  0  0  0  0
  -18.2543   17.1635  -33.5097 C   0  0  0  0  0  0  0  0  0  0  0  0
  -18.1454   17.9515  -34.6268 N   0  0  0  0  0  0  0  0  0  0  0  0
  -19.0025   17.9347  -35.6145 N   0  0  0  0  0  0  0  0  0  0  0  0
  -20.0827   17.1383  -35.6340 C   0  0  0  0  0  0  0  0  0  0  0  0
  -21.0084   17.1370  -36.7143 N   0  0  0  0  0  0  0  0  0  0  0  0
  -20.9730   18.0766  -37.7663 C   0  0  0  0  0  0  0  0  0  0  0  0
  -20.0004   17.9784  -38.7222 C   0  0  0  0  0  0  0  0  0  0  0  0
  -19.9541   18.8988  -39.7637 C   0  0  0  0  0  0  0  0  0  0  0  0
  -20.8753   19.9213  -39.8592 C   0  0  0  0  0  0  0  0  0  0  0  0
  -20.8521   20.8502  -40.8825 O   0  0  0  0  0  0  0  0  0  0  0  0
  -20.1276   22.0220  -40.7329 C   0  0  0  0  0  0  0  0  0  0  0  0
  -19.5040   22.2540  -39.5264 N   0  0  0  0  0  0  0  0  0  0  0  0
  -18.8109   23.3654  -39.3690 C   0  0  0  0  0  0  0  0  0  0  0  0
  -18.6853   24.3053  -40.3646 C   0  0  0  0  0  0  0  0  0  0  0  0
  -19.3089   24.0668  -41.5624 C   0  0  0  0  0  0  0  0  0  0  0  0
  -20.0554   22.9023  -41.7772 C   0  0  0  0  0  0  0  0  0  0  0  0
  -20.6838   22.7000  -43.0677 C   0  0  0  0  0  0  0  0  0  0  0  0
  -21.8478   22.0690  -43.3348 C   0  0  0  0  0  0  0  0  0  0  0  0
  -22.2809   21.9796  -44.6610 C   0  0  0  0  0  0  0  0  0  0  0  0
  -21.5724   22.5030  -45.6708 N   0  0  0  0  0  0  0  0  0  0  0  0
  -20.4191   23.1283  -45.4021 C   0  0  0  0  0  0  0  0  0  0  0  0
  -19.6174   23.7092  -46.4510 N   0  0  0  0  0  0  0  0  0  0  0  0
  -20.0113   23.2113  -44.1444 N   0  0  0  0  0  0  0  0  0  0  0  0
  -21.8323   19.9655  -38.8627 C   0  0  0  0  0  0  0  0  0  0  0  0
  -21.9128   19.0854  -37.8273 C   0  0  0  0  0  0  0  0  0  0  0  0
  -20.2512   16.3187  -34.5386 C   0  0  0  0  0  0  0  0  0  0  0  0
  -21.3437   15.4854  -34.5185 C   0  0  0  0  0  0  0  0  0  0  0  0
  -21.5174   14.6652  -33.4327 C   0  0  0  0  0  0  0  0  0  0  0  0
  -20.6399   14.6675  -32.3993 C   0  0  0  0  0  0  0  0  0  0  0  0
  -19.5295   15.5147  -32.4203 C   0  0  0  0  0  0  0  0  0  0  0  0
  -19.3270   16.3396  -33.4780 C   0  0  0  0  0  0  0  0  0  0  0  0
  -16.5768   16.4111  -31.7889 C   0  0  0  0  0  0  0  0  0  0  0  0
  1  2  1  0
  2  3  2  0
  3  4  1  0
  4  5  1  0
  5  6  1  0
  6  7  2  0
  7  8  1  0
  8  9  2  0
  9 10  1  0
 10 11  1  0
 11 12  2  0
 12 13  1  0
 13 14  2  0
 14 15  1  0
 15 16  1  0
 16 17  2  0
 17 18  1  0
 18 19  2  0
 19 20  1  0
 20 21  2  0
 21 22  1  0
 22 23  2  0
 23 24  1  0
 24 25  2  0
 25 26  1  0
 26 27  1  0
 26 28  2  0
 14 29  1  0
 29 30  2  0
  9 31  1  0
 31 32  2  0
 32 33  1  0
 33 34  2  0
 34 35  1  0
 35 36  2  0
  5 37  2  0
 37  2  1  0
 36  6  1  0
 30 11  1  0
 36 31  1  0
 21 16  1  0
 28 22  1  0
M  END
$$$$
