
     RDKit          3D

 19 21  0  0  0  0  0  0  0  0999 V2000
  -19.0231   38.4294  -20.6479 O   0  0  0  0  0  0  0  0  0  0  0  0
  -18.7316   37.8897  -21.8770 C   0  0  0  0  0  0  0  0  0  0  0  0
  -17.4465   38.4577  -22.4148 C   0  0  0  0  0  0  0  0  0  0  0  0
  -17.7344   39.8979  -22.7541 C   0  0  0  0  0  0  0  0  0  0  0  0
  -17.2865   40.9853  -22.1010 N   0  0  0  0  0  0  0  0  0  0  0  0
  -17.7455   42.1049  -22.6862 C   0  0  0  0  0  0  0  0  0  0  0  0
  -17.6083   43.4695  -22.4473 C   0  0  0  0  0  0  0  0  0  0  0  0
  -18.2122   44.4142  -23.2372 C   0  0  0  0  0  0  0  0  0  0  0  0
  -18.9875   44.0291  -24.3113 C   0  0  0  0  0  0  0  0  0  0  0  0
  -19.1217   42.6604  -24.5461 C   0  0  0  0  0  0  0  0  0  0  0  0
  -18.5112   41.7150  -23.7473 C   0  0  0  0  0  0  0  0  0  0  0  0
  -18.4876   40.3687  -23.7658 N   0  0  0  0  0  0  0  0  0  0  0  0
  -18.7549   36.4064  -21.8957 C   0  0  0  0  0  0  0  0  0  0  0  0
  -17.6853   35.6875  -21.3999 C   0  0  0  0  0  0  0  0  0  0  0  0
  -17.7197   34.3085  -21.4232 C   0  0  0  0  0  0  0  0  0  0  0  0
  -18.8100   33.6024  -21.9362 C   0  0  0  0  0  0  0  0  0  0  0  0
  -19.8759   34.3263  -22.4303 C   0  0  0  0  0  0  0  0  0  0  0  0
  -19.8363   35.7038  -22.4045 C   0  0  0  0  0  0  0  0  0  0  0  0
  -21.1831   36.6572  -23.0286 Cl  0  0  0  0  0  0  0  0  0  0  0  0
  1  2  1  0
  2  3  1  0
  3  4  1  0
  4  5  2  0
  5  6  1  0
  6  7  2  0
  7  8  1  0
  8  9  2  0
  9 10  1  0
 10 11  2  0
 11 12  1  0
  2 13  1  0
 13 14  2  0
 14 15  1  0
 15 16  2  0
 16 17  1  0
 17 18  2  0
 18 19  1  0
 12  4  1  0
 18 13  1  0
 11  6  1  0
M  END
$$$$
