
     RDKit          3D

 30 32  0  0  0  0  0  0  0  0999 V2000
  -27.1261   17.1343  -30.5513 O   0  0  0  0  0  0  0  0  0  0  0  0
  -27.7291   16.9518  -29.4325 C   0  0  0  0  0  0  0  0  0  0  0  0
  -29.0905   17.2079  -29.3570 O   0  0  0  0  0  0  0  0  0  0  0  0
  -26.9632   16.4944  -28.3104 C   0  0  0  0  0  0  0  0  0  0  0  0
  -27.6350   16.4054  -27.0844 C   0  0  0  0  0  0  0  0  0  0  0  0
  -26.9764   15.9350  -25.9831 C   0  0  0  0  0  0  0  0  0  0  0  0
  -25.6529   15.5427  -26.0499 C   0  0  0  0  0  0  0  0  0  0  0  0
  -25.0274   15.6452  -27.2644 C   0  0  0  0  0  0  0  0  0  0  0  0
  -25.6590   16.1209  -28.4224 C   0  0  0  0  0  0  0  0  0  0  0  0
  -24.8941   16.1963  -29.5947 N   0  0  0  0  0  0  0  0  0  0  0  0
  -24.1396   15.2238  -30.1921 N   0  0  0  0  0  0  0  0  0  0  0  0
  -23.5877   15.2904  -31.3479 C   0  0  0  0  0  0  0  0  0  0  0  0
  -22.7836   16.4876  -31.6790 C   0  0  0  0  0  0  0  0  0  0  0  0
  -23.1068   17.3273  -32.7066 C   0  0  0  0  0  0  0  0  0  0  0  0
  -22.2657   18.4163  -32.9525 C   0  0  0  0  0  0  0  0  0  0  0  0
  -21.1338   18.6675  -32.1984 C   0  0  0  0  0  0  0  0  0  0  0  0
  -20.2414   19.8026  -32.4791 C   0  0  0  0  0  0  0  0  0  0  0  0
  -19.3042   19.6654  -33.3679 N   0  0  0  0  0  0  0  0  0  0  0  0
  -18.6253   18.4514  -33.5233 N   0  0  0  0  0  0  0  0  0  0  0  0
  -17.3264   18.2760  -32.9972 C   0  0  0  0  0  0  0  0  0  0  0  0
  -17.0702   18.8772  -31.7591 C   0  0  0  0  0  0  0  0  0  0  0  0
  -15.8333   18.7816  -31.1924 C   0  0  0  0  0  0  0  0  0  0  0  0
  -14.8530   18.0789  -31.8765 C   0  0  0  0  0  0  0  0  0  0  0  0
  -15.0969   17.4898  -33.0873 C   0  0  0  0  0  0  0  0  0  0  0  0
  -16.3700   17.5853  -33.6747 C   0  0  0  0  0  0  0  0  0  0  0  0
  -16.6273   16.9849  -34.9576 C   0  0  0  0  0  0  0  0  0  0  0  0
  -17.7246   16.9548  -35.5014 O   0  0  0  0  0  0  0  0  0  0  0  0
  -15.5561   16.3934  -35.6383 O   0  0  0  0  0  0  0  0  0  0  0  0
  -20.8268   17.8097  -31.1643 C   0  0  0  0  0  0  0  0  0  0  0  0
  -21.6530   16.7453  -30.9288 C   0  0  0  0  0  0  0  0  0  0  0  0
  1  2  2  0
  2  3  1  0
  2  4  1  0
  4  5  2  0
  5  6  1  0
  6  7  2  0
  7  8  1  0
  8  9  2  0
  9 10  1  0
 10 11  1  0
 11 12  2  0
 12 13  1  0
 13 14  2  0
 14 15  1  0
 15 16  2  0
 16 17  1  0
 17 18  2  0
 18 19  1  0
 19 20  1  0
 20 21  2  0
 21 22  1  0
 22 23  2  0
 23 24  1  0
 24 25  2  0
 25 26  1  0
 26 27  2  0
 26 28  1  0
 16 29  1  0
 29 30  2  0
  9  4  1  0
 30 13  1  0
 25 20  1  0
M  END
$$$$
