
     RDKit          3D

 46 51  0  0  0  0  0  0  0  0999 V2000
  -24.2383   19.5911  -31.5223 C   0  0  0  0  0  0  0  0  0  0  0  0
  -22.8825   19.5403  -31.9159 O   0  0  0  0  0  0  0  0  0  0  0  0
  -22.5594   19.7569  -33.2324 C   0  0  0  0  0  0  0  0  0  0  0  0
  -22.9887   20.9050  -33.8791 C   0  0  0  0  0  0  0  0  0  0  0  0
  -22.6738   21.1404  -35.2012 C   0  0  0  0  0  0  0  0  0  0  0  0
  -23.0842   22.2736  -35.8458 C   0  0  0  0  0  0  0  0  0  0  0  0
  -23.8676   23.2573  -35.2410 N   0  0  0  0  0  0  0  0  0  0  0  0
  -24.7274   24.1616  -35.9907 C   0  0  0  0  0  0  0  0  0  0  0  0
  -23.9254   25.0544  -36.8748 C   0  0  0  0  0  0  0  0  0  0  0  0
  -23.6213   26.4122  -36.2862 C   0  0  0  0  0  0  0  0  0  0  0  0
  -24.8119   27.1289  -35.9111 N   0  0  0  0  0  0  0  0  0  0  0  0
  -25.0897   28.2800  -36.7275 C   0  0  0  0  0  0  0  0  0  0  0  0
  -25.7553   29.3995  -36.0005 C   0  0  0  0  0  0  0  0  0  0  0  0
  -26.9941   28.9990  -35.2591 C   0  0  0  0  0  0  0  0  0  0  0  0
  -27.4171   30.1519  -34.3767 C   0  0  0  0  0  0  0  0  0  0  0  0
  -26.8509   31.4691  -34.8486 C   0  0  0  0  0  0  0  0  0  0  0  0
  -26.8691   31.5924  -36.3686 C   0  0  0  0  0  0  0  0  0  0  0  0
  -26.1633   30.4361  -37.0362 C   0  0  0  0  0  0  0  0  0  0  0  0
  -25.9712   26.2591  -35.8365 C   0  0  0  0  0  0  0  0  0  0  0  0
  -25.6409   24.9613  -35.1314 C   0  0  0  0  0  0  0  0  0  0  0  0
  -22.7265   22.4434  -37.1481 N   0  0  0  0  0  0  0  0  0  0  0  0
  -21.9911   21.5324  -37.8005 C   0  0  0  0  0  0  0  0  0  0  0  0
  -21.5760   21.6718  -39.1527 N   0  0  0  0  0  0  0  0  0  0  0  0
  -20.5105   20.7621  -39.5614 C   0  0  0  0  0  0  0  0  0  0  0  0
  -20.9844   19.8328  -40.6599 C   0  0  0  0  0  0  0  0  0  0  0  0
  -20.9771   20.5025  -42.0005 C   0  0  0  0  0  0  0  0  0  0  0  0
  -22.0730   21.4425  -42.0541 N   0  0  0  0  0  0  0  0  0  0  0  0
  -22.5704   21.6823  -43.3719 C   0  0  0  0  0  0  0  0  0  0  0  0
  -22.7423   20.3340  -44.0545 C   0  0  0  0  0  0  0  0  0  0  0  0
  -21.4994   22.4218  -44.1833 C   0  0  0  0  0  0  0  0  0  0  0  0
  -21.6873   22.6411  -41.3636 C   0  0  0  0  0  0  0  0  0  0  0  0
  -22.2283   22.6732  -39.9441 C   0  0  0  0  0  0  0  0  0  0  0  0
  -21.5994   20.4257  -37.1485 N   0  0  0  0  0  0  0  0  0  0  0  0
  -21.9026   20.1713  -35.8635 C   0  0  0  0  0  0  0  0  0  0  0  0
  -21.4808   19.0347  -35.2143 C   0  0  0  0  0  0  0  0  0  0  0  0
  -21.7986   18.8082  -33.8961 C   0  0  0  0  0  0  0  0  0  0  0  0
  -21.3858   17.6696  -33.2084 O   0  0  0  0  0  0  0  0  0  0  0  0
  -20.5126   16.7463  -33.8423 C   0  0  0  0  0  0  0  0  0  0  0  0
  -19.8782   15.8979  -32.7723 C   0  0  0  0  0  0  0  0  0  0  0  0
  -18.9210   14.8819  -33.3545 C   0  0  0  0  0  0  0  0  0  0  0  0
  -17.5651   15.2649  -33.2888 N   0  0  0  0  0  0  0  0  0  0  0  0
  -16.5747   14.3319  -33.6396 C   0  0  0  0  0  0  0  0  0  0  0  0
  -15.7808   13.7795  -32.4861 C   0  0  0  0  0  0  0  0  0  0  0  0
  -15.1888   14.9449  -31.7258 C   0  0  0  0  0  0  0  0  0  0  0  0
  -16.3193   15.7958  -31.2373 C   0  0  0  0  0  0  0  0  0  0  0  0
  -17.2274   16.2583  -32.3426 C   0  0  0  0  0  0  0  0  0  0  0  0
  1  2  1  0
  2  3  1  0
  3  4  2  0
  4  5  1  0
  5  6  2  0
  6  7  1  0
  7  8  1  0
  8  9  1  0
  9 10  1  0
 10 11  1  0
 11 12  1  0
 12 13  1  0
 13 14  1  0
 14 15  1  0
 15 16  1  0
 16 17  1  0
 17 18  1  0
 11 19  1  0
 19 20  1  0
  6 21  1  0
 21 22  2  0
 22 23  1  0
 23 24  1  0
 24 25  1  0
 25 26  1  0
 26 27  1  0
 27 28  1  0
 28 29  1  0
 28 30  1  0
 27 31  1  0
 31 32  1  0
 22 33  1  0
 33 34  2  0
 34 35  1  0
 35 36  2  0
 36 37  1  0
 37 38  1  0
 38 39  1  0
 39 40  1  0
 40 41  1  0
 41 42  1  0
 42 43  1  0
 43 44  1  0
 44 45  1  0
 45 46  1  0
 36  3  1  0
 46 41  1  0
 34  5  1  0
 20  8  1  0
 32 23  1  0
 18 13  1  0
M  END
$$$$
