
     RDKit          3D

 25 28  0  0  0  0  0  0  0  0999 V2000
  -30.3577   18.6374  -31.0961 C   0  0  0  0  0  0  0  0  0  0  0  0
  -29.3063   18.7022  -30.0079 C   0  0  0  0  0  0  0  0  0  0  0  0
  -29.9117   18.1937  -28.7016 C   0  0  0  0  0  0  0  0  0  0  0  0
  -28.2009   17.7730  -30.3936 C   0  0  0  0  0  0  0  0  0  0  0  0
  -28.8817   20.0636  -29.7597 N   0  0  0  0  0  0  0  0  0  0  0  0
  -28.1073   20.8370  -30.4984 N   0  0  0  0  0  0  0  0  0  0  0  0
  -27.9402   22.0327  -29.9015 C   0  0  0  0  0  0  0  0  0  0  0  0
  -27.1138   23.1651  -30.3804 C   0  0  0  0  0  0  0  0  0  0  0  0
  -27.0584   23.1961  -31.8562 C   0  0  0  0  0  0  0  0  0  0  0  0
  -26.2683   22.3456  -32.6036 C   0  0  0  0  0  0  0  0  0  0  0  0
  -26.2944   22.4349  -33.9798 C   0  0  0  0  0  0  0  0  0  0  0  0
  -27.0804   23.3454  -34.6602 C   0  0  0  0  0  0  0  0  0  0  0  0
  -27.8630   24.1864  -33.8823 C   0  0  0  0  0  0  0  0  0  0  0  0
  -28.6612   25.1111  -34.5096 C   0  0  0  0  0  0  0  0  0  0  0  0
  -29.4576   25.9743  -33.7936 C   0  0  0  0  0  0  0  0  0  0  0  0
  -29.4700   25.9269  -32.4034 C   0  0  0  0  0  0  0  0  0  0  0  0
  -28.6604   24.9912  -31.8039 C   0  0  0  0  0  0  0  0  0  0  0  0
  -27.8490   24.1105  -32.5093 C   0  0  0  0  0  0  0  0  0  0  0  0
  -28.6597   21.9686  -28.7384 C   0  0  0  0  0  0  0  0  0  0  0  0
  -28.9036   22.8438  -27.6869 C   0  0  0  0  0  0  0  0  0  0  0  0
  -28.2977   24.1220  -27.7941 N   0  0  0  0  0  0  0  0  0  0  0  0
  -29.6723   22.4734  -26.6608 N   0  0  0  0  0  0  0  0  0  0  0  0
  -30.2418   21.2656  -26.5855 C   0  0  0  0  0  0  0  0  0  0  0  0
  -30.0303   20.3921  -27.5826 N   0  0  0  0  0  0  0  0  0  0  0  0
  -29.2645   20.7290  -28.6257 C   0  0  0  0  0  0  0  0  0  0  0  0
  1  2  1  0
  2  3  1  0
  2  4  1  0
  2  5  1  0
  5  6  1  0
  6  7  2  0
  7  8  1  0
  8  9  1  0
  9 10  2  0
 10 11  1  0
 11 12  2  0
 12 13  1  0
 13 14  2  0
 14 15  1  0
 15 16  2  0
 16 17  1  0
 17 18  2  0
  7 19  1  0
 19 20  2  0
 20 21  1  0
 20 22  1  0
 22 23  2  0
 23 24  1  0
 24 25  2  0
 25  5  1  0
 18  9  1  0
 25 19  1  0
 18 13  1  0
M  END
$$$$
