
     RDKit          3D

 48 52  0  0  0  0  0  0  0  0999 V2000
  -25.1899   11.4806  -36.8936 C   0  0  0  0  0  0  0  0  0  0  0  0
  -24.3794   12.3637  -36.4064 C   0  0  0  0  0  0  0  0  0  0  0  0
  -23.8973   13.5397  -37.1172 C   0  0  0  0  0  0  0  0  0  0  0  0
  -22.9273   13.3918  -37.9442 O   0  0  0  0  0  0  0  0  0  0  0  0
  -24.4549   14.8173  -36.9288 N   0  0  0  0  0  0  0  0  0  0  0  0
  -23.8130   16.0691  -37.0526 C   0  0  0  0  0  0  0  0  0  0  0  0
  -23.1785   16.5077  -38.1728 C   0  0  0  0  0  0  0  0  0  0  0  0
  -22.5587   17.7760  -38.2346 C   0  0  0  0  0  0  0  0  0  0  0  0
  -22.5781   18.6138  -37.1529 C   0  0  0  0  0  0  0  0  0  0  0  0
  -21.9558   19.9575  -37.1168 C   0  0  0  0  0  0  0  0  0  0  0  0
  -20.7183   20.0092  -37.8462 N   0  0  0  0  0  0  0  0  0  0  0  0
  -19.5555   19.3985  -37.3424 C   0  0  0  0  0  0  0  0  0  0  0  0
  -19.6076   18.5057  -36.4560 O   0  0  0  0  0  0  0  0  0  0  0  0
  -18.2507   19.7499  -37.7999 N   0  0  0  0  0  0  0  0  0  0  0  0
  -17.1616   19.9406  -36.9149 C   0  0  0  0  0  0  0  0  0  0  0  0
  -16.9899   21.0669  -36.1438 C   0  0  0  0  0  0  0  0  0  0  0  0
  -18.1679   22.3550  -36.2335 Cl  0  0  0  0  0  0  0  0  0  0  0  0
  -15.8805   21.1317  -35.3228 C   0  0  0  0  0  0  0  0  0  0  0  0
  -15.7059   22.2826  -34.5361 O   0  0  0  0  0  0  0  0  0  0  0  0
  -14.4991   23.0087  -34.6669 C   0  0  0  0  0  0  0  0  0  0  0  0
  -14.9816   20.0869  -35.2904 C   0  0  0  0  0  0  0  0  0  0  0  0
  -15.1489   18.9751  -36.0496 C   0  0  0  0  0  0  0  0  0  0  0  0
  -14.2343   17.9328  -36.0050 O   0  0  0  0  0  0  0  0  0  0  0  0
  -12.9776   18.0790  -36.6531 C   0  0  0  0  0  0  0  0  0  0  0  0
  -16.2421   18.8873  -36.8728 C   0  0  0  0  0  0  0  0  0  0  0  0
  -16.4448   17.4470  -37.8463 Cl  0  0  0  0  0  0  0  0  0  0  0  0
  -20.6796   20.6974  -39.0868 C   0  0  0  0  0  0  0  0  0  0  0  0
  -19.4760   21.0982  -39.6251 C   0  0  0  0  0  0  0  0  0  0  0  0
  -19.4037   21.7694  -40.8389 C   0  0  0  0  0  0  0  0  0  0  0  0
  -18.1769   22.1671  -41.4059 N   0  0  0  0  0  0  0  0  0  0  0  0
  -17.1083   21.3393  -41.7814 C   0  0  0  0  0  0  0  0  0  0  0  0
  -15.8131   21.8759  -41.7936 C   0  0  0  0  0  0  0  0  0  0  0  0
  -14.7010   21.1510  -42.1504 C   0  0  0  0  0  0  0  0  0  0  0  0
  -14.8062   19.8371  -42.5203 C   0  0  0  0  0  0  0  0  0  0  0  0
  -13.7084   19.0289  -42.8846 N   0  0  0  0  0  0  0  0  0  0  0  0
  -13.5697   17.6716  -42.3730 C   0  0  0  0  0  0  0  0  0  0  0  0
  -12.4077   16.9612  -43.0311 C   0  0  0  0  0  0  0  0  0  0  0  0
  -11.1936   17.7265  -42.9869 N   0  0  0  0  0  0  0  0  0  0  0  0
  -10.3193   17.3510  -41.8924 C   0  0  0  0  0  0  0  0  0  0  0  0
  -11.3558   19.1357  -43.1010 C   0  0  0  0  0  0  0  0  0  0  0  0
  -12.6731   19.5017  -43.7616 C   0  0  0  0  0  0  0  0  0  0  0  0
  -16.0880   19.2954  -42.5121 C   0  0  0  0  0  0  0  0  0  0  0  0
  -17.2114   20.0192  -42.1544 C   0  0  0  0  0  0  0  0  0  0  0  0
  -20.5765   21.9974  -41.4418 N   0  0  0  0  0  0  0  0  0  0  0  0
  -21.7497   21.6070  -40.9169 C   0  0  0  0  0  0  0  0  0  0  0  0
  -21.8452   20.9595  -39.7512 N   0  0  0  0  0  0  0  0  0  0  0  0
  -23.2217   18.1612  -36.0252 C   0  0  0  0  0  0  0  0  0  0  0  0
  -23.8242   16.9392  -35.9525 C   0  0  0  0  0  0  0  0  0  0  0  0
  1  2  2  0
  2  3  1  0
  3  4  2  0
  3  5  1  0
  5  6  1  0
  6  7  2  0
  7  8  1  0
  8  9  2  0
  9 10  1  0
 10 11  1  0
 11 12  1  0
 12 13  2  0
 12 14  1  0
 14 15  1  0
 15 16  2  0
 16 17  1  0
 16 18  1  0
 18 19  1  0
 19 20  1  0
 18 21  2  0
 21 22  1  0
 22 23  1  0
 23 24  1  0
 22 25  2  0
 25 26  1  0
 11 27  1  0
 27 28  2  0
 28 29  1  0
 29 30  1  0
 30 31  1  0
 31 32  2  0
 32 33  1  0
 33 34  2  0
 34 35  1  0
 35 36  1  0
 36 37  1  0
 37 38  1  0
 38 39  1  0
 38 40  1  0
 40 41  1  0
 34 42  1  0
 42 43  2  0
 29 44  2  0
 44 45  1  0
 45 46  2  0
  9 47  1  0
 47 48  2  0
 48  6  1  0
 25 15  1  0
 46 27  1  0
 43 31  1  0
 41 35  1  0
M  END
$$$$
