
     RDKit          3D

 11  9  0  0  0  0  0  0  0  0999 V2000
  -17.5848   37.7371  -21.5895 C   0  0  0  0  0  0  0  0  0  0  0  0
  -18.5345   37.7646  -22.6645 N   0  0  0  0  0  4  0  0  0  0  0  0
  -17.8118   38.2333  -23.8542 C   0  0  0  0  0  0  0  0  0  0  0  0
  -19.5519   38.7882  -22.4076 C   0  0  0  0  0  0  0  0  0  0  0  0
  -19.2092   36.5300  -22.8983 C   0  0  0  0  0  0  0  0  0  0  0  0
  -18.5512   35.3329  -22.2964 C   0  0  0  0  0  0  0  0  0  0  0  0
  -19.3571   34.1965  -22.6285 O   0  0  0  0  0  0  0  0  0  0  0  0
  -19.0022   32.9265  -22.2066 C   0  0  0  0  0  0  0  0  0  0  0  0
  -19.7493   31.7553  -22.4961 N   0  0  0  0  0  0  0  0  0  0  0  0
  -17.9564   32.7954  -21.5257 O   0  0  0  0  0  0  0  0  0  0  0  0
  -18.7742   36.3275  -22.6028 Cl  0  0  0  0  0 15  0  0  0  0  0  0
  1  2  1  0
  2  3  1  0
  2  4  1  0
  2  5  1  0
  5  6  1  0
  6  7  1  0
  7  8  1  0
  8  9  1  0
  8 10  2  0
M  CHG  2   2   1  11  -1
M  END
$$$$
