
     RDKit          3D

 46 51  0  0  0  0  0  0  0  0999 V2000
  -13.2952   -3.2786  -21.5681 C   0  0  0  0  0  0  0  0  0  0  0  0
  -14.0295   -2.6687  -22.7027 C   0  0  0  0  0  0  0  0  0  0  0  0
  -15.2637   -1.8926  -22.3428 C   0  0  0  0  0  0  0  0  0  0  0  0
  -13.6733   -2.7656  -23.9589 C   0  0  0  0  0  0  0  0  0  0  0  0
  -14.2008   -3.6598  -24.9869 C   0  0  0  0  0  0  0  0  0  0  0  0
  -14.6683   -3.0676  -26.2594 C   0  0  0  0  0  0  0  0  0  0  0  0
  -15.3573   -4.0617  -27.1651 C   0  0  2  0  0  0  0  0  0  0  0  0
  -16.8196   -4.2328  -26.7685 C   0  0  0  0  0  0  0  0  0  0  0  0
  -14.6399   -5.3482  -27.0260 C   0  0  0  0  0  0  0  0  0  0  0  0
  -14.0941   -5.9643  -28.0321 C   0  0  0  0  0  0  0  0  0  0  0  0
  -14.1592   -5.4173  -29.3688 C   0  0  0  0  0  0  0  0  0  0  0  0
  -13.5856   -6.0498  -30.4484 C   0  0  0  0  0  0  0  0  0  0  0  0
  -12.9149   -7.2529  -30.3204 O   0  0  0  0  0  0  0  0  0  0  0  0
  -13.6815   -5.4748  -31.6764 C   0  0  0  0  0  0  0  0  0  0  0  0
  -14.3503   -4.2562  -31.8797 C   0  0  0  0  0  0  0  0  0  0  0  0
  -14.9322   -3.6087  -30.8252 C   0  0  0  0  0  0  0  0  0  0  0  0
  -15.7257   -2.3842  -30.9036 C   0  0  0  0  0  0  0  0  0  0  0  0
  -14.9485   -1.1551  -30.6782 C   0  0  0  0  0  0  0  0  0  0  0  0
  -15.1704    0.1017  -30.8569 C   0  0  0  0  0  0  0  0  0  0  0  0
  -16.5929    0.5319  -31.2558 C   0  0  0  0  0  0  0  0  0  0  0  0
  -14.2299    1.2159  -30.6978 C   0  0  0  0  0  0  0  0  0  0  0  0
  -14.8233   -4.2135  -29.5461 C   0  0  0  0  0  0  0  0  0  0  0  0
  -15.3993   -3.5656  -28.4850 O   0  0  0  0  0  0  0  0  0  0  0  0
  -14.4333   -3.6775  -33.1572 O   0  0  0  0  0  0  0  0  0  0  0  0
  -13.5755   -3.9741  -34.1914 C   0  0  2  0  0  0  0  0  0  0  0  0
  -13.0668   -5.4037  -34.1364 C   0  0  0  0  0  0  0  0  0  0  0  0
  -12.6328   -5.8623  -35.2889 C   0  0  0  0  0  0  0  0  0  0  0  0
  -11.9224   -4.7469  -36.0755 C   0  0  2  0  0  0  0  0  0  0  0  0
  -11.2804   -3.8861  -35.0080 C   0  0  0  0  0  0  0  0  0  0  0  0
  -12.2503   -3.1305  -34.1548 C   0  0  1  0  0  0  0  0  0  0  0  0
  -12.7667   -1.8599  -34.7158 C   0  0  0  0  0  0  0  0  0  0  0  0
  -11.7581   -1.1160  -35.5627 C   0  0  0  0  0  0  0  0  0  0  0  0
  -13.0846   -0.9416  -33.5263 C   0  0  0  0  0  0  0  0  0  0  0  0
  -13.9176   -2.1115  -35.3935 O   0  0  0  0  0  0  0  0  0  0  0  0
  -14.0456   -3.5433  -35.5158 C   0  0  2  0  0  0  0  0  0  0  0  0
  -15.4725   -3.8029  -35.9071 C   0  0  0  0  0  0  0  0  0  0  0  0
  -15.9127   -2.9461  -37.0171 C   0  0  0  0  0  0  0  0  0  0  0  0
  -16.9620   -2.1749  -36.9206 C   0  0  0  0  0  0  0  0  0  0  0  0
  -17.2643   -1.1812  -38.0189 C   0  0  0  0  0  0  0  0  0  0  0  0
  -17.8971   -2.2252  -35.8348 C   0  0  0  0  0  0  0  0  0  0  0  0
  -19.1285   -2.0623  -35.8837 O   0  0  0  0  0  0  0  0  0  0  0  0
  -17.4095   -2.4888  -34.5279 O   0  0  0  0  0  0  0  0  0  0  0  0
  -13.0829   -3.9480  -36.5884 C   0  0  0  0  0  0  0  0  0  0  0  0
  -13.2163   -3.6653  -37.7571 O   0  0  0  0  0  0  0  0  0  0  0  0
  -13.0339   -6.0448  -32.8567 C   0  0  0  0  0  0  0  0  0  0  0  0
  -12.4254   -7.1437  -32.7329 O   0  0  0  0  0  0  0  0  0  0  0  0
  1  2  1  0
  2  3  1  0
  2  4  2  3
  4  5  1  0
  5  6  1  0
  6  7  1  0
  7  8  1  1
  7  9  1  0
  9 10  2  0
 10 11  1  0
 11 12  1  0
 12 13  1  0
 12 14  2  0
 14 15  1  0
 15 16  2  0
 16 17  1  0
 17 18  1  0
 18 19  2  3
 19 20  1  0
 19 21  1  0
 16 22  1  0
 22 23  1  0
 15 24  1  0
 25 24  1  1
 25 26  1  0
 26 27  2  0
 27 28  1  0
 28 29  1  1
 29 30  1  0
 30 31  1  6
 31 32  1  0
 31 33  1  0
 31 34  1  0
 34 35  1  0
 35 36  1  6
 36 37  1  0
 37 38  2  0
 38 39  1  0
 38 40  1  0
 40 41  2  0
 40 42  1  0
 35 43  1  0
 43 44  2  0
 26 45  1  0
 45 46  2  0
 23  7  1  0
 30 25  1  0
 22 11  2  0
 35 25  1  0
 45 14  1  0
 43 28  1  0
M  END
$$$$
