
     RDKit          3D

 24 24  0  0  0  0  0  0  0  0999 V2000
  -17.7631   35.7117  -22.1024 C   0  0  0  0  0  0  0  0  0  0  0  0
  -17.9711   37.1378  -22.4705 C   0  0  0  0  0  0  0  0  0  0  0  0
  -17.5584   38.1520  -21.5950 C   0  0  0  0  0  0  0  0  0  0  0  0
  -17.7361   39.4783  -21.9054 C   0  0  0  0  0  0  0  0  0  0  0  0
  -17.3317   40.5907  -21.0435 C   0  0  0  0  0  0  0  0  0  0  0  0
  -16.7277   40.3795  -19.8262 C   0  0  0  0  0  0  0  0  0  0  0  0
  -16.3299   41.3972  -18.9819 C   0  0  0  0  0  0  0  0  0  0  0  0
  -16.5533   42.6915  -19.3876 C   0  0  0  0  0  0  0  0  0  0  0  0
  -17.1568   42.9430  -20.6024 C   0  0  0  0  0  0  0  0  0  0  0  0
  -17.5408   41.9026  -21.4195 C   0  0  0  0  0  0  0  0  0  0  0  0
  -18.3272   39.7446  -23.0944 N   0  0  0  0  0  0  0  0  0  0  0  0
  -18.7174   38.7977  -23.9215 N   0  0  0  0  0  0  0  0  0  0  0  0
  -18.5661   37.4868  -23.6643 C   0  0  0  0  0  0  0  0  0  0  0  0
  -19.0050   36.5039  -24.5945 N   0  0  0  0  0  0  0  0  0  0  0  0
  -19.6333   36.8612  -25.8537 C   0  0  0  0  0  0  0  0  0  0  0  0
  -20.9067   37.6464  -25.6419 C   0  0  0  0  0  0  0  0  0  0  0  0
  -21.4651   37.9511  -26.9436 N   0  0  0  0  0  0  0  0  0  0  0  0
  -22.6906   38.6909  -26.8469 C   0  0  0  0  0  0  0  0  0  0  0  0
  -22.7059   39.8942  -27.7385 C   0  0  0  0  0  0  0  0  0  0  0  0
  -22.4171   39.4211  -29.0283 O   0  0  0  0  0  0  0  0  0  0  0  0
  -21.0765   39.1067  -29.0899 C   0  0  0  0  0  0  0  0  0  0  0  0
  -20.5364   38.4044  -27.8969 C   0  0  0  0  0  0  0  0  0  0  0  0
  -18.8798   39.0882  -23.5134 Cl  0  0  0  0  0  0  0  0  0  0  0  0
  -18.8803   39.0880  -23.5147 Cl  0  0  0  0  0  0  0  0  0  0  0  0
  1  2  1  0
  2  3  2  0
  3  4  1  0
  4  5  1  0
  5  6  2  0
  6  7  1  0
  7  8  2  0
  8  9  1  0
  9 10  2  0
  4 11  2  0
 11 12  1  0
 12 13  2  0
 13 14  1  0
 14 15  1  0
 15 16  1  0
 16 17  1  0
 17 18  1  0
 18 19  1  0
 19 20  1  0
 20 21  1  0
 21 22  1  0
 13  2  1  0
 22 17  1  0
 10  5  1  0
M  END
$$$$
