
     RDKit          3D

 11 10  0  0  0  0  0  0  0  0999 V2000
  -17.6207   34.3999  -23.1480 C   0  0  0  0  0  0  0  0  0  0  0  0
  -18.4807   34.3483  -21.8900 C   0  0  0  0  0  0  0  0  0  0  0  0
  -19.7417   34.8054  -22.2507 O   0  0  0  0  0  0  0  0  0  0  0  0
  -17.9116   35.2555  -20.8296 C   0  0  0  0  0  0  0  0  0  0  0  0
  -17.5433   36.5965  -21.3294 C   0  0  0  0  0  0  0  0  0  0  0  0
  -18.2843   37.5761  -21.4453 O   0  0  0  0  0  0  0  0  0  0  0  0
  -16.2018   36.7927  -21.7180 O   0  0  0  0  0  0  0  0  0  0  0  0
  -18.5986   32.9013  -21.4335 C   0  0  0  0  0  0  0  0  0  0  0  0
  -19.4218   32.1024  -22.3555 C   0  0  0  0  0  0  0  0  0  0  0  0
  -20.6224   31.8983  -22.1046 O   0  0  0  0  0  0  0  0  0  0  0  0
  -18.8720   31.5783  -23.4988 O   0  0  0  0  0  0  0  0  0  0  0  0
  1  2  1  0
  2  3  1  0
  2  4  1  0
  4  5  1  0
  5  6  2  0
  5  7  1  0
  2  8  1  0
  8  9  1  0
  9 10  2  0
  9 11  1  0
M  END
$$$$
