
     RDKit          3D

 25 25  0  0  0  0  0  0  0  0999 V2000
  -10.6372    8.9109  -27.5317 C   0  0  0  0  0  0  0  0  0  0  0  0
  -10.5058   10.3782  -27.4899 C   0  0  0  0  0  0  0  0  0  0  0  0
   -9.8162   11.0106  -26.3350 C   0  0  0  0  0  0  0  0  0  0  0  0
  -11.0207   11.0986  -28.5090 C   0  0  0  0  0  0  0  0  0  0  0  0
  -11.4458   12.4925  -28.2805 C   0  0  0  0  0  0  0  0  0  0  0  0
  -12.8790   12.7809  -28.5084 C   0  0  0  0  0  0  0  0  0  0  0  0
  -13.3083   13.0545  -29.9048 C   0  0  0  0  0  0  0  0  0  0  0  0
  -12.2694   12.9144  -30.9556 C   0  0  0  0  0  0  0  0  0  0  0  0
  -14.5377   13.4240  -30.1531 C   0  0  0  0  0  0  0  0  0  0  0  0
  -15.0673   14.7629  -30.1985 C   0  0  0  0  0  0  0  0  0  0  0  0
  -16.5059   15.0539  -30.2435 C   0  0  0  0  0  0  0  0  0  0  0  0
  -16.6768   16.5833  -30.2266 C   0  0  0  0  0  0  0  0  0  0  0  0
  -16.5743   17.3393  -28.9630 C   0  0  0  0  0  0  0  0  0  0  0  0
  -16.9195   17.2673  -31.3348 C   0  0  0  0  0  0  0  0  0  0  0  0
  -17.1054   16.6271  -32.6436 C   0  0  0  0  0  0  0  0  0  0  0  0
  -18.3793   17.3279  -33.6720 S   0  0  0  0  0  0  0  0  0  0  0  0
  -19.9685   16.5960  -33.5169 C   0  0  0  0  0  0  0  0  0  0  0  0
  -20.1759   15.4061  -32.8787 C   0  0  0  0  0  0  0  0  0  0  0  0
  -21.4615   14.8642  -32.7755 C   0  0  0  0  0  0  0  0  0  0  0  0
  -22.5567   15.5093  -33.3115 C   0  0  0  0  0  0  0  0  0  0  0  0
  -22.3439   16.7121  -33.9562 C   0  0  0  0  0  0  0  0  0  0  0  0
  -21.0702   17.2300  -34.0478 C   0  0  0  0  0  0  0  0  0  0  0  0
  -20.9012   18.5023  -34.7379 C   0  0  0  0  0  0  0  0  0  0  0  0
  -19.7652   19.0419  -34.8118 O   0  0  0  0  0  0  0  0  0  0  0  0
  -21.9646   19.1653  -35.3340 O   0  0  0  0  0  0  0  0  0  0  0  0
  1  2  1  0
  2  3  1  0
  2  4  2  3
  4  5  1  0
  5  6  1  0
  6  7  1  0
  7  8  1  0
  7  9  2  0
  9 10  1  0
 10 11  1  0
 11 12  1  0
 12 13  1  0
 12 14  2  0
 14 15  1  0
 15 16  1  0
 16 17  1  0
 17 18  2  0
 18 19  1  0
 19 20  2  0
 20 21  1  0
 21 22  2  0
 22 23  1  0
 23 24  2  0
 23 25  1  0
 22 17  1  0
M  END
$$$$
