
     RDKit          3D

 31 34  0  0  0  0  0  0  0  0999 V2000
  -21.1853   42.5349  -24.3295 O   0  0  0  0  0  0  0  0  0  0  0  0
  -20.8872   42.6257  -25.6735 C   0  0  0  0  0  0  0  0  0  0  0  0
  -20.7427   41.2524  -26.3374 C   0  0  1  0  0  0  0  0  0  0  0  0
  -20.4715   40.3582  -25.3393 O   0  0  0  0  0  0  0  0  0  0  0  0
  -20.5708   39.0523  -25.7571 C   0  0  1  0  0  0  0  0  0  0  0  0
  -19.9644   38.0806  -24.8463 C   0  0  0  0  0  0  0  0  0  0  0  0
  -20.3813   36.7565  -24.9193 C   0  0  0  0  0  0  0  0  0  0  0  0
  -19.8620   35.7938  -24.1010 C   0  0  0  0  0  0  0  0  0  0  0  0
  -18.8856   36.1804  -23.1742 C   0  0  0  0  0  0  0  0  0  0  0  0
  -18.2843   34.8894  -22.1582 Cl  0  0  0  0  0  0  0  0  0  0  0  0
  -18.4505   37.4609  -23.0703 C   0  0  0  0  0  0  0  0  0  0  0  0
  -17.4152   37.8680  -22.1019 C   0  0  0  0  0  0  0  0  0  0  0  0
  -17.3781   39.2934  -21.7913 C   0  0  0  0  0  0  0  0  0  0  0  0
  -18.2473   39.7710  -20.8366 C   0  0  0  0  0  0  0  0  0  0  0  0
  -18.2587   41.1179  -20.4726 C   0  0  0  0  0  0  0  0  0  0  0  0
  -17.3894   41.9830  -21.0756 C   0  0  0  0  0  0  0  0  0  0  0  0
  -17.3564   43.3095  -20.7599 O   0  0  0  0  0  0  0  0  0  0  0  0
  -16.5525   44.3159  -21.2634 C   0  0  1  0  0  0  0  0  0  0  0  0
  -17.1353   44.9797  -22.4987 C   0  0  0  0  0  0  0  0  0  0  0  0
  -18.0038   46.0462  -21.8738 C   0  0  0  0  0  0  0  0  0  0  0  0
  -17.4968   46.3582  -20.6470 O   0  0  0  0  0  0  0  0  0  0  0  0
  -16.4731   45.5009  -20.3268 C   0  0  0  0  0  0  0  0  0  0  0  0
  -16.5240   41.4946  -22.0290 C   0  0  0  0  0  0  0  0  0  0  0  0
  -16.5048   40.1481  -22.3999 C   0  0  0  0  0  0  0  0  0  0  0  0
  -19.0106   38.4130  -23.9285 C   0  0  0  0  0  0  0  0  0  0  0  0
  -22.0707   38.7817  -25.9506 C   0  0  2  0  0  0  0  0  0  0  0  0
  -22.3037   37.4439  -26.1957 O   0  0  0  0  0  0  0  0  0  0  0  0
  -22.4962   39.6161  -27.1194 C   0  0  1  0  0  0  0  0  0  0  0  0
  -23.9064   39.6289  -27.1882 O   0  0  0  0  0  0  0  0  0  0  0  0
  -21.9592   40.9974  -27.1419 C   0  0  2  0  0  0  0  0  0  0  0  0
  -21.6448   41.3003  -28.4892 O   0  0  0  0  0  0  0  0  0  0  0  0
  1  2  1  0
  3  2  1  1
  3  4  1  0
  4  5  1  0
  5  6  1  1
  6  7  2  0
  7  8  1  0
  8  9  2  0
  9 10  1  0
  9 11  1  0
 11 12  1  0
 12 13  1  0
 13 14  2  0
 14 15  1  0
 15 16  2  0
 16 17  1  0
 18 17  1  1
 18 19  1  0
 19 20  1  0
 20 21  1  0
 21 22  1  0
 16 23  1  0
 23 24  2  0
 11 25  2  0
  5 26  1  0
 26 27  1  6
 26 28  1  0
 28 29  1  1
 28 30  1  0
 30 31  1  6
 30  3  1  0
 25  6  1  0
 24 13  1  0
 22 18  1  0
M  END
$$$$
