
     RDKit          3D

 19 20  0  0  0  0  0  0  0  0999 V2000
  -22.3996   41.6094  -27.8993 C   0  0  0  0  0  0  0  0  0  0  0  0
  -21.4238   41.7913  -27.0455 C   0  0  0  0  0  0  0  0  0  0  0  0
  -20.9663   40.6735  -26.2348 C   0  0  0  0  0  0  0  0  0  0  0  0
  -21.7832   39.8662  -25.7229 O   0  0  0  0  0  0  0  0  0  0  0  0
  -19.5853   40.4251  -25.9726 N   0  0  0  0  0  0  0  0  0  0  0  0
  -19.1816   39.5171  -24.9555 C   0  0  0  0  0  0  0  0  0  0  0  0
  -20.0908   38.5836  -24.5053 C   0  0  0  0  0  0  0  0  0  0  0  0
  -19.7866   37.6641  -23.5224 C   0  0  0  0  0  0  0  0  0  0  0  0
  -18.5255   37.6787  -22.9687 C   0  0  0  0  0  0  0  0  0  0  0  0
  -18.1338   36.5224  -21.7278 S   0  0  0  0  0  6  0  0  0  0  0  0
  -18.6841   36.9986  -20.4072 O   0  0  0  0  0  0  0  0  0  0  0  0
  -16.6372   36.4391  -21.6318 O   0  0  0  0  0  0  0  0  0  0  0  0
  -18.7802   34.9929  -22.1586 N   0  0  0  0  0  0  0  0  0  0  0  0
  -18.2028   34.5560  -23.4012 C   0  0  0  0  0  0  0  0  0  0  0  0
  -16.8419   34.0678  -23.0218 C   0  0  0  0  0  0  0  0  0  0  0  0
  -16.9421   33.7276  -21.5730 C   0  0  0  0  0  0  0  0  0  0  0  0
  -18.3686   34.0198  -21.1609 C   0  0  0  0  0  0  0  0  0  0  0  0
  -17.5848   38.5941  -23.3880 C   0  0  0  0  0  0  0  0  0  0  0  0
  -17.9267   39.5108  -24.3853 C   0  0  0  0  0  0  0  0  0  0  0  0
  1  2  2  0
  2  3  1  0
  3  4  2  0
  3  5  1  0
  5  6  1  0
  6  7  2  0
  7  8  1  0
  8  9  2  0
  9 10  1  0
 10 11  2  0
 10 12  2  0
 10 13  1  0
 13 14  1  0
 14 15  1  0
 15 16  1  0
 16 17  1  0
  9 18  1  0
 18 19  2  0
 19  6  1  0
 17 13  1  0
M  END
$$$$
