
     RDKit          3D

 23 25  0  0  0  0  0  0  0  0999 V2000
  -47.1704    8.2268  -36.8174 C   0  0  0  0  0  0  0  0  0  0  0  0
  -45.9021    8.3097  -37.4548 N   0  0  0  0  0  0  0  0  0  0  0  0
  -45.9745    8.0343  -38.8501 C   0  0  0  0  0  0  0  0  0  0  0  0
  -44.5990    7.8874  -39.4896 C   0  0  0  0  0  0  0  0  0  0  0  0
  -43.6673    9.0174  -39.2489 C   0  0  0  0  0  0  0  0  0  0  0  0
  -42.8586    9.6241  -40.0470 C   0  0  0  0  0  0  0  0  0  0  0  0
  -42.0247   10.7465  -39.5134 C   0  0  0  0  0  0  0  0  0  0  0  0
  -41.4690   10.4069  -38.3096 C   0  0  0  0  0  0  0  0  0  0  0  0
  -40.7072   11.3397  -37.6867 C   0  0  0  0  0  0  0  0  0  0  0  0
  -40.5257   12.5762  -38.2894 C   0  0  0  0  0  0  0  0  0  0  0  0
  -41.1051   12.8886  -39.5217 C   0  0  0  0  0  0  0  0  0  0  0  0
  -41.8808   11.9542  -40.1667 C   0  0  0  0  0  0  0  0  0  0  0  0
  -42.3892   12.3832  -41.4947 C   0  0  0  0  0  0  0  0  0  0  0  0
  -42.8093   11.6048  -42.5008 C   0  0  0  0  0  0  0  0  0  0  0  0
  -42.8672   10.1318  -42.5275 C   0  0  0  0  0  0  0  0  0  0  0  0
  -42.9027    9.5743  -43.7866 C   0  0  0  0  0  0  0  0  0  0  0  0
  -42.9181    8.2091  -43.9618 C   0  0  0  0  0  0  0  0  0  0  0  0
  -42.8971    7.3348  -42.8748 C   0  0  0  0  0  0  0  0  0  0  0  0
  -42.8611    7.8684  -41.6065 C   0  0  0  0  0  0  0  0  0  0  0  0
  -42.8506    9.2300  -41.4891 C   0  0  0  0  0  0  0  0  0  0  0  0
  -43.9028    9.5034  -37.8685 C   0  0  0  0  0  0  0  0  0  0  0  0
  -45.4007    9.6873  -37.5586 C   0  0  0  0  0  0  0  0  0  0  0  0
  -44.0540    9.5343  -39.2835 Cl  0  0  0  0  0  0  0  0  0  0  0  0
  1  2  1  0
  2  3  1  0
  3  4  1  0
  4  5  1  0
  5  6  2  3
  6  7  1  0
  7  8  2  0
  8  9  1  0
  9 10  2  0
 10 11  1  0
 11 12  2  0
 12 13  1  0
 13 14  2  0
 14 15  1  0
 15 16  2  0
 16 17  1  0
 17 18  2  0
 18 19  1  0
 19 20  2  0
  5 21  1  0
 21 22  1  0
 22  2  1  0
 20  6  1  0
 12  7  1  0
 20 15  1  0
M  END
$$$$
