
     RDKit          3D

 14 14  0  0  0  0  0  0  0  0999 V2000
  -19.6618   38.9372  -26.7137 C   0  0  0  0  0  0  0  0  0  0  0  0
  -20.5657   38.7187  -25.5314 C   0  0  0  0  0  0  0  0  0  0  0  0
  -20.3792   37.4015  -24.9756 N   0  0  0  0  0  0  0  0  0  0  0  0
  -19.3947   37.1468  -23.9733 C   0  0  0  0  0  0  0  0  0  0  0  0
  -18.7750   38.1728  -23.3797 N   0  0  0  0  0  0  0  0  0  0  0  0
  -17.8332   37.9983  -22.4230 C   0  0  0  0  0  0  0  0  0  0  0  0
  -17.2092   39.1220  -21.8282 N   0  0  0  0  0  0  0  0  0  0  0  0
  -16.9867   40.3713  -22.5121 C   0  0  0  0  0  0  0  0  0  0  0  0
  -18.0016   41.4002  -22.1379 C   0  0  0  0  0  0  0  0  0  0  0  0
  -17.5345   36.7337  -22.0813 N   0  0  0  0  0  0  0  0  0  0  0  0
  -18.1260   35.6681  -22.6451 C   0  0  0  0  0  0  0  0  0  0  0  0
  -17.7396   33.9884  -22.2016 S   0  0  0  0  0  0  0  0  0  0  0  0
  -16.3436   33.8775  -21.0861 C   0  0  0  0  0  0  0  0  0  0  0  0
  -19.0497   35.9093  -23.5857 N   0  0  0  0  0  0  0  0  0  0  0  0
  1  2  1  0
  2  3  1  0
  3  4  1  0
  4  5  2  0
  5  6  1  0
  6  7  1  0
  7  8  1  0
  8  9  1  0
  6 10  2  0
 10 11  1  0
 11 12  1  0
 12 13  1  0
 11 14  2  0
 14  4  1  0
M  END
$$$$
