
     RDKit          3D

 28 30  0  0  0  0  0  0  0  0999 V2000
  -20.3831    0.1981  -37.9267 C   0  0  0  0  0  0  0  0  0  0  0  0
  -19.9536    0.1312  -36.5383 N   0  0  0  0  0  0  0  0  0  0  0  0
  -20.9862    0.5422  -35.6398 C   0  0  0  0  0  0  0  0  0  0  0  0
  -20.5083    0.9018  -34.2688 C   0  0  0  0  0  0  0  0  0  0  0  0
  -19.0035    0.8366  -34.1121 C   0  0  0  0  0  0  0  0  0  0  0  0
  -18.6132   -0.6129  -34.0589 C   0  0  0  0  0  0  0  0  0  0  0  0
  -17.5550   -0.8937  -33.1145 N   0  0  0  0  0  0  0  0  0  0  0  0
  -16.8797    0.0224  -32.4732 N   0  0  0  0  0  0  0  0  0  0  0  0
  -15.8759   -0.2474  -31.5807 C   0  0  0  0  0  0  0  0  0  0  0  0
  -15.1256    0.8251  -30.9319 C   0  0  0  0  0  0  0  0  0  0  0  0
  -13.8420    1.1797  -31.5786 C   0  0  0  0  0  0  0  0  0  0  0  0
  -13.8629    1.8430  -32.8163 C   0  0  0  0  0  0  0  0  0  0  0  0
  -12.7158    2.2277  -33.4731 C   0  0  0  0  0  0  0  0  0  0  0  0
  -11.4810    1.9684  -32.9238 C   0  0  0  0  0  0  0  0  0  0  0  0
   -9.9954    2.4509  -33.7472 Cl  0  0  0  0  0  0  0  0  0  0  0  0
  -11.4241    1.3214  -31.7140 C   0  0  0  0  0  0  0  0  0  0  0  0
  -12.6008    0.9381  -31.0611 C   0  0  0  0  0  0  0  0  0  0  0  0
  -15.5854   -1.5685  -31.3667 C   0  0  0  0  0  0  0  0  0  0  0  0
  -14.6118   -1.9897  -30.4854 C   0  0  0  0  0  0  0  0  0  0  0  0
  -14.3721   -3.3358  -30.3036 C   0  0  0  0  0  0  0  0  0  0  0  0
  -15.0666   -4.3176  -30.9677 C   0  0  0  0  0  0  0  0  0  0  0  0
  -16.0408   -3.9216  -31.8480 C   0  0  0  0  0  0  0  0  0  0  0  0
  -16.2843   -2.5822  -32.0331 C   0  0  0  0  0  0  0  0  0  0  0  0
  -17.2691   -2.1878  -32.9053 C   0  0  0  0  0  0  0  0  0  0  0  0
  -17.9132   -3.1095  -33.5192 O   0  0  0  0  0  0  0  0  0  0  0  0
  -18.1590   -0.9994  -35.4539 C   0  0  0  0  0  0  0  0  0  0  0  0
  -19.4443   -1.2041  -36.2572 C   0  0  0  0  0  0  0  0  0  0  0  0
  -17.3200   -0.4015  -33.8196 Cl  0  0  0  0  0  0  0  0  0  0  0  0
  1  2  1  0
  2  3  1  0
  3  4  1  0
  4  5  1  0
  5  6  1  0
  6  7  1  0
  7  8  1  0
  8  9  2  0
  9 10  1  0
 10 11  1  0
 11 12  2  0
 12 13  1  0
 13 14  2  0
 14 15  1  0
 14 16  1  0
 16 17  2  0
  9 18  1  0
 18 19  2  0
 19 20  1  0
 20 21  2  0
 21 22  1  0
 22 23  2  0
 23 24  1  0
 24 25  2  0
  6 26  1  0
 26 27  1  0
 27  2  1  0
 24  7  1  0
 17 11  1  0
 23 18  1  0
M  END
$$$$
