
     RDKit          3D

 53 52  0  0  0  0  0  0  0  0999 V2000
  -13.0164   12.6629  -33.1914 O   0  0  0  0  0  0  0  0  0  0  0  0
  -13.7600   13.6882  -33.3337 C   0  0  0  0  0  0  0  0  0  0  0  0
  -15.1125   13.6213  -33.0702 C   0  0  0  0  0  0  0  0  0  0  0  0
  -15.8483   14.7638  -33.2456 C   0  0  0  0  0  0  0  0  0  0  0  0
  -15.3048   15.9164  -33.6558 N   0  0  0  0  0  0  0  0  0  0  0  0
  -16.1823   17.0713  -33.8089 C   0  0  2  0  0  0  0  0  0  0  0  0
  -17.0678   17.0540  -32.7361 O   0  0  0  0  0  0  0  0  0  0  0  0
  -18.2655   17.5868  -33.2068 C   0  0  2  0  0  0  0  0  0  0  0  0
  -19.3529   17.1327  -32.2613 C   0  0  0  0  0  0  0  0  0  0  0  0
  -20.5883   17.6314  -32.6721 O   0  0  0  0  0  0  0  0  0  0  0  0
  -21.8248   17.1527  -31.6533 P   0  0  0  0  0  5  0  0  0  0  0  0
  -22.6140   16.0276  -32.3173 O   0  0  0  0  0  0  0  0  0  0  0  0
  -21.2707   16.5693  -30.1710 O   0  0  0  0  0  1  0  0  0  0  0  0
  -22.9224   18.4006  -31.3445 O   0  0  0  0  0  0  0  0  0  0  0  0
  -22.1745   19.9047  -31.3392 P   0  0  0  0  0  5  0  0  0  0  0  0
  -20.6625   19.7779  -31.2757 O   0  0  0  0  0  0  0  0  0  0  0  0
  -22.5586   20.7111  -32.7709 O   0  0  0  0  0  1  0  0  0  0  0  0
  -22.6860   20.7417  -29.9738 O   0  0  0  0  0  0  0  0  0  0  0  0
  -24.3572   20.9797  -30.0765 P   0  0  0  0  0  5  0  0  0  0  0  0
  -24.7444   21.5081  -31.4547 O   0  0  0  0  0  0  0  0  0  0  0  0
  -25.1908   19.5022  -29.8878 O   0  0  0  0  0  1  0  0  0  0  0  0
  -24.8472   22.1105  -28.9474 O   0  0  0  0  0  0  0  0  0  0  0  0
  -25.9414   21.4945  -27.8337 P   0  0  0  0  0  5  0  0  0  0  0  0
  -25.7673   20.0089  -27.6274 O   0  0  0  0  0  0  0  0  0  0  0  0
  -25.6197   22.2405  -26.3332 O   0  0  0  0  0  1  0  0  0  0  0  0
  -27.5437   21.8674  -28.2298 O   0  0  0  0  0  0  0  0  0  0  0  0
  -28.2899   20.6909  -28.4374 C   0  0  0  0  0  0  0  0  0  0  0  0
  -29.7011   21.1136  -28.7847 C   0  0  1  0  0  0  0  0  0  0  0  0
  -30.4978   19.9916  -29.0040 O   0  0  0  0  0  0  0  0  0  0  0  0
  -31.8111   20.4067  -28.9190 C   0  0  1  0  0  0  0  0  0  0  0  0
  -32.6661   19.3841  -28.3462 N   0  0  0  0  0  0  0  0  0  0  0  0
  -32.1925   18.3822  -27.5764 C   0  0  0  0  0  0  0  0  0  0  0  0
  -33.0663   17.4335  -27.0579 C   0  0  0  0  0  0  0  0  0  0  0  0
  -34.4071   17.4930  -27.3124 C   0  0  0  0  0  0  0  0  0  0  0  0
  -35.1730   16.6146  -26.8253 O   0  0  0  0  0  0  0  0  0  0  0  0
  -34.8509   18.5052  -28.0845 N   0  0  0  0  0  0  0  0  0  0  0  0
  -33.9887   19.4047  -28.5709 C   0  0  0  0  0  0  0  0  0  0  0  0
  -34.4305   20.3480  -29.2950 O   0  0  0  0  0  0  0  0  0  0  0  0
  -31.8593   21.6022  -28.0100 C   0  0  2  0  0  0  0  0  0  0  0  0
  -32.1784   22.7398  -28.7617 O   0  0  0  0  0  0  0  0  0  0  0  0
  -30.4028   21.7498  -27.5980 C   0  0  2  0  0  0  0  0  0  0  0  0
  -30.0335   23.0550  -27.3881 O   0  0  0  0  0  0  0  0  0  0  0  0
  -18.4368   16.9784  -34.5647 C   0  0  1  0  0  0  0  0  0  0  0  0
  -19.0899   17.8456  -35.4441 O   0  0  0  0  0  0  0  0  0  0  0  0
  -17.0145   16.8361  -35.0494 C   0  0  1  0  0  0  0  0  0  0  0  0
  -16.6988   17.7773  -36.0196 O   0  0  0  0  0  0  0  0  0  0  0  0
  -13.9920   15.9750  -33.9099 C   0  0  0  0  0  0  0  0  0  0  0  0
  -13.5249   17.0781  -34.2929 O   0  0  0  0  0  0  0  0  0  0  0  0
  -13.2592   14.8679  -33.7435 N   0  0  0  0  0  0  0  0  0  0  0  0
  -23.9873   18.4316  -30.6362 Na  0  0  0  0  0 15  0  0  0  0  0  0
  -23.9873   18.4316  -30.6362 Na  0  0  0  0  0 15  0  0  0  0  0  0
  -23.9873   18.4316  -30.6362 Na  0  0  0  0  0 15  0  0  0  0  0  0
  -23.9873   18.4316  -30.6362 Na  0  0  0  0  0 15  0  0  0  0  0  0
  1  2  2  0
  2  3  1  0
  3  4  2  0
  4  5  1  0
  6  5  1  1
  6  7  1  0
  7  8  1  0
  8  9  1  1
  9 10  1  0
 10 11  1  0
 11 12  2  0
 11 13  1  0
 11 14  1  0
 14 15  1  0
 15 16  2  0
 15 17  1  0
 15 18  1  0
 18 19  1  0
 19 20  2  0
 19 21  1  0
 19 22  1  0
 22 23  1  0
 23 24  2  0
 23 25  1  0
 23 26  1  0
 26 27  1  0
 28 27  1  1
 28 29  1  0
 29 30  1  0
 30 31  1  1
 31 32  1  0
 32 33  2  0
 33 34  1  0
 34 35  2  0
 34 36  1  0
 36 37  1  0
 37 38  2  0
 30 39  1  0
 39 40  1  6
 39 41  1  0
 41 42  1  6
  8 43  1  0
 43 44  1  6
 43 45  1  0
 45 46  1  6
  5 47  1  0
 47 48  2  0
 47 49  1  0
 49  2  1  0
 45  6  1  0
 41 28  1  0
 37 31  1  0
M  CHG  8  13  -1  17  -1  21  -1  25  -1  50   1  51   1  52   1  53   1
M  END
$$$$
