
     RDKit          3D

 19 21  0  0  0  0  0  0  0  0999 V2000
  -17.9273   14.3902  -34.8210 C   0  0  0  0  0  0  0  0  0  0  0  0
  -17.3819   15.2278  -33.6955 C   0  0  0  0  0  0  0  0  0  0  0  0
  -17.5866   16.5958  -33.6788 C   0  0  0  0  0  0  0  0  0  0  0  0
  -17.0823   17.3595  -32.6408 C   0  0  0  0  0  0  0  0  0  0  0  0
  -16.3807   16.7493  -31.6333 C   0  0  0  0  0  0  0  0  0  0  0  0
  -15.8570   17.6030  -30.5397 C   0  0  0  0  0  0  0  0  0  0  0  0
  -16.1691   15.3904  -31.6362 C   0  0  0  0  0  0  0  0  0  0  0  0
  -15.4281   14.7636  -30.5674 N   0  0  0  0  0  0  0  0  0  0  0  0
  -13.8653   14.0713  -30.6530 S   0  0  0  0  0  0  0  0  0  0  0  0
  -13.7443   13.5587  -28.9532 C   0  0  0  0  0  0  0  0  0  0  0  0
  -12.7567   12.9078  -28.2143 C   0  0  0  0  0  0  0  0  0  0  0  0
  -12.9776   12.6462  -26.8659 C   0  0  0  0  0  0  0  0  0  0  0  0
  -12.0780   12.0279  -26.0980 F   0  0  0  0  0  0  0  0  0  0  0  0
  -14.1728   13.0593  -26.3676 C   0  0  0  0  0  0  0  0  0  0  0  0
  -15.1312   13.6923  -27.0899 C   0  0  0  0  0  0  0  0  0  0  0  0
  -14.9410   13.9738  -28.4601 C   0  0  0  0  0  0  0  0  0  0  0  0
  -15.7941   14.5901  -29.2992 C   0  0  0  0  0  0  0  0  0  0  0  0
  -16.9704   15.0377  -28.9616 O   0  0  0  0  0  0  0  0  0  0  0  0
  -16.6767   14.6533  -32.6726 C   0  0  0  0  0  0  0  0  0  0  0  0
  1  2  1  0
  2  3  2  0
  3  4  1  0
  4  5  2  0
  5  6  1  0
  5  7  1  0
  7  8  1  0
  8  9  1  0
  9 10  1  0
 10 11  2  0
 11 12  1  0
 12 13  1  0
 12 14  2  0
 14 15  1  0
 15 16  2  0
 16 17  1  0
 17 18  2  0
  7 19  2  0
 19  2  1  0
 17  8  1  0
 16 10  1  0
M  END
$$$$
