
     RDKit          3D

 26 29  0  0  0  0  0  0  0  0999 V2000
  -22.0221   22.9538  -30.0812 N   0  0  0  0  0  0  0  0  0  0  0  0
  -22.3812   21.8983  -30.9582 C   0  0  0  0  0  0  0  0  0  0  0  0
  -21.5861   21.5422  -31.8654 O   0  0  0  0  0  0  0  0  0  0  0  0
  -23.6605   21.2165  -30.8259 C   0  0  0  0  0  0  0  0  0  0  0  0
  -24.4625   20.9953  -31.9478 C   0  0  0  0  0  0  0  0  0  0  0  0
  -25.6688   20.3387  -31.7431 C   0  0  0  0  0  0  0  0  0  0  0  0
  -26.0967   19.9073  -30.5112 C   0  0  0  0  0  0  0  0  0  0  0  0
  -27.1784   19.2711  -30.0506 N   0  0  0  0  0  0  0  0  0  0  0  0
  -27.0603   19.1059  -28.7297 C   0  0  0  0  0  0  0  0  0  0  0  0
  -28.0384   18.4515  -27.8513 C   0  0  0  0  0  0  0  0  0  0  0  0
  -28.1768   18.9324  -26.5730 C   0  0  0  0  0  0  0  0  0  0  0  0
  -29.0974   18.3236  -25.7323 C   0  0  0  0  0  0  0  0  0  0  0  0
  -29.8698   17.2641  -26.1311 C   0  0  0  0  0  0  0  0  0  0  0  0
  -30.7740   16.7056  -25.2258 O   0  0  0  0  0  0  0  0  0  0  0  0
  -30.5538   15.4441  -24.7140 C   0  0  0  0  0  0  0  0  0  0  0  0
  -29.2980   14.8785  -24.5822 C   0  0  0  0  0  0  0  0  0  0  0  0
  -29.1789   13.5899  -24.0505 C   0  0  0  0  0  0  0  0  0  0  0  0
  -30.3092   12.9000  -23.6652 C   0  0  0  0  0  0  0  0  0  0  0  0
  -30.1613   11.2937  -23.0024 Cl  0  0  0  0  0  0  0  0  0  0  0  0
  -31.5703   13.4437  -23.7874 C   0  0  0  0  0  0  0  0  0  0  0  0
  -31.6666   14.7157  -24.3139 C   0  0  0  0  0  0  0  0  0  0  0  0
  -29.7103   16.8038  -27.4152 C   0  0  0  0  0  0  0  0  0  0  0  0
  -28.7966   17.3899  -28.2863 C   0  0  0  0  0  0  0  0  0  0  0  0
  -25.8931   19.6427  -28.3526 N   0  0  0  0  0  0  0  0  0  0  0  0
  -25.2711   20.1471  -29.4265 C   0  0  0  0  0  0  0  0  0  0  0  0
  -24.0565   20.7996  -29.5819 C   0  0  0  0  0  0  0  0  0  0  0  0
  1  2  1  0
  2  3  2  0
  2  4  1  0
  4  5  2  0
  5  6  1  0
  6  7  2  0
  7  8  1  0
  8  9  1  0
  9 10  1  0
 10 11  2  0
 11 12  1  0
 12 13  2  0
 13 14  1  0
 14 15  1  0
 15 16  2  0
 16 17  1  0
 17 18  2  0
 18 19  1  0
 18 20  1  0
 20 21  2  0
 13 22  1  0
 22 23  2  0
  9 24  2  0
 24 25  1  0
 25 26  2  0
 26  4  1  0
 25  7  1  0
 23 10  1  0
 21 15  1  0
M  END
$$$$
