
     RDKit          3D

 15 15  0  0  0  0  0  0  0  0999 V2000
   -0.3922   17.0373  -20.9709 C   0  0  0  0  0  0  0  0  0  0  0  0
    0.6640   18.0162  -20.9885 N   0  0  0  0  0  0  0  0  0  0  0  0
    1.1378   18.5598  -22.2340 C   0  0  0  0  0  0  0  0  0  0  0  0
    1.2277   18.4349  -19.7697 C   0  0  0  0  0  0  0  0  0  0  0  0
    2.2248   19.3460  -19.8204 N   0  0  0  0  0  0  0  0  0  0  0  0
    2.8398   19.8207  -18.7237 C   0  0  0  0  0  0  0  0  0  0  0  0
    3.8851   20.7799  -18.8274 N   0  0  0  0  0  0  0  0  0  0  0  0
    4.2214   21.3091  -20.1355 C   0  0  0  0  0  0  0  0  0  0  0  0
    4.6184   21.2433  -17.6899 C   0  0  0  0  0  0  0  0  0  0  0  0
    2.4138   19.3416  -17.5407 N   0  0  0  0  0  0  0  0  0  0  0  0
    1.4297   18.4379  -17.4326 C   0  0  0  0  0  0  0  0  0  0  0  0
    0.9770   17.9300  -16.1939 N   0  0  0  0  0  0  0  0  0  0  0  0
    1.6445   18.2343  -14.9459 C   0  0  0  0  0  0  0  0  0  0  0  0
   -0.1935   17.0791  -16.1863 C   0  0  0  0  0  0  0  0  0  0  0  0
    0.8457   17.9938  -18.5621 N   0  0  0  0  0  0  0  0  0  0  0  0
  1  2  1  0
  2  3  1  0
  2  4  1  0
  4  5  2  0
  5  6  1  0
  6  7  1  0
  7  8  1  0
  7  9  1  0
  6 10  2  0
 10 11  1  0
 11 12  1  0
 12 13  1  0
 12 14  1  0
 11 15  2  0
 15  4  1  0
M  END
$$$$
