
     RDKit          3D

 20 22  0  0  0  0  0  0  0  0999 V2000
  -18.2062   36.6273  -24.3474 C   0  0  0  0  0  0  0  0  0  0  0  0
  -18.9297   37.1615  -23.1538 C   0  0  2  0  0  0  0  0  0  0  0  0
  -19.1559   38.6403  -23.1961 C   0  0  0  0  0  0  0  0  0  0  0  0
  -18.6294   39.2082  -21.9699 N   0  0  0  0  0  0  0  0  0  0  0  0
  -19.2424   39.3032  -20.7723 C   0  0  0  0  0  0  0  0  0  0  0  0
  -18.3911   39.9099  -19.8714 C   0  0  0  0  0  0  0  0  0  0  0  0
  -17.2689   40.1674  -20.5661 N   0  0  0  0  0  0  0  0  0  0  0  0
  -17.4327   39.7474  -21.7925 N   0  0  0  0  0  0  0  0  0  0  0  0
  -18.2739   36.6710  -21.9189 C   0  0  2  0  0  0  0  0  0  0  0  0
  -16.7873   36.7910  -22.1065 C   0  0  0  0  0  0  0  0  0  0  0  0
  -16.2866   37.8171  -22.6211 O   0  0  0  0  0  0  0  0  0  0  0  0
  -15.9802   35.7638  -21.7079 O   0  0  0  0  0  0  0  0  0  0  0  0
  -18.6175   35.3399  -21.6560 N   0  0  0  0  0  0  0  0  0  0  0  0
  -18.6424   34.0605  -21.0701 C   0  0  0  0  0  0  0  0  0  0  0  0
  -17.7963   33.2912  -20.5888 O   0  0  0  0  0  0  0  0  0  0  0  0
  -20.1122   34.0842  -21.3014 C   0  0  0  0  0  0  0  0  0  0  0  0
  -19.6825   34.7878  -22.5258 C   0  0  1  0  0  0  0  0  0  0  0  0
  -20.4988   36.2794  -23.0085 S   0  0  0  0  0  6  0  0  0  0  0  0
  -21.3142   36.8252  -21.8998 O   0  0  0  0  0  0  0  0  0  0  0  0
  -21.1948   36.1854  -24.3077 O   0  0  0  0  0  0  0  0  0  0  0  0
  2  1  1  6
  2  3  1  0
  3  4  1  0
  4  5  1  0
  5  6  2  0
  6  7  1  0
  7  8  2  0
  2  9  1  0
  9 10  1  6
 10 11  2  0
 10 12  1  0
  9 13  1  0
 13 14  1  0
 14 15  2  0
 14 16  1  0
 17 16  1  1
 17 18  1  0
 18 19  2  0
 18 20  2  0
 18  2  1  0
  8  4  1  0
 17 13  1  0
M  END
$$$$
