
     RDKit          3D

 25 28  0  0  0  0  0  0  0  0999 V2000
  -28.9241   20.0549  -26.3257 C   0  0  0  0  0  0  0  0  0  0  0  0
  -29.4560   20.0756  -27.7015 C   0  0  0  0  0  0  0  0  0  0  0  0
  -28.5368   20.3551  -28.7083 C   0  0  0  0  0  0  0  0  0  0  0  0
  -27.1794   20.6144  -28.7526 C   0  0  0  0  0  0  0  0  0  0  0  0
  -26.4313   20.6503  -27.7509 O   0  0  0  0  0  0  0  0  0  0  0  0
  -26.8182   20.8152  -30.0327 N   0  0  0  0  0  0  0  0  0  0  0  0
  -25.5188   21.1095  -30.5160 C   0  0  0  0  0  0  0  0  0  0  0  0
  -25.3296   21.9226  -31.6263 C   0  0  0  0  0  0  0  0  0  0  0  0
  -24.0861   22.2310  -32.1250 C   0  0  0  0  0  0  0  0  0  0  0  0
  -22.9688   21.7200  -31.5088 C   0  0  0  0  0  0  0  0  0  0  0  0
  -23.1119   20.9124  -30.4090 C   0  0  0  0  0  0  0  0  0  0  0  0
  -24.3810   20.6111  -29.9183 C   0  0  0  0  0  0  0  0  0  0  0  0
  -27.9049   20.6867  -30.7606 N   0  0  0  0  0  0  0  0  0  0  0  0
  -28.9778   20.4057  -29.9967 C   0  0  0  0  0  0  0  0  0  0  0  0
  -30.3120   20.1783  -30.2432 C   0  0  0  0  0  0  0  0  0  0  0  0
  -31.1772   19.9059  -29.2100 C   0  0  0  0  0  0  0  0  0  0  0  0
  -32.3819   19.7129  -29.5355 O   0  0  0  0  0  0  0  0  0  0  0  0
  -30.7579   19.8496  -27.9147 N   0  0  0  0  0  0  0  0  0  0  0  0
  -31.7279   19.5496  -26.8940 C   0  0  0  0  0  0  0  0  0  0  0  0
  -31.9157   18.1078  -26.6204 C   0  0  0  0  0  0  0  0  0  0  0  0
  -33.0880   17.4626  -26.9220 C   0  0  0  0  0  0  0  0  0  0  0  0
  -33.2659   16.0961  -26.6667 C   0  0  0  0  0  0  0  0  0  0  0  0
  -32.2315   15.3898  -26.0983 C   0  0  0  0  0  0  0  0  0  0  0  0
  -31.1007   16.0469  -25.8162 N   0  0  0  0  0  0  0  0  0  0  0  0
  -30.9027   17.3695  -26.0533 C   0  0  0  0  0  0  0  0  0  0  0  0
  1  2  1  0
  2  3  2  0
  3  4  1  0
  4  5  2  0
  4  6  1  0
  6  7  1  0
  7  8  2  0
  8  9  1  0
  9 10  2  0
 10 11  1  0
 11 12  2  0
  6 13  1  0
 13 14  1  0
 14 15  2  0
 15 16  1  0
 16 17  2  0
 16 18  1  0
 18 19  1  0
 19 20  1  0
 20 21  2  0
 21 22  1  0
 22 23  2  0
 23 24  1  0
 24 25  2  0
 18  2  1  0
 25 20  1  0
 14  3  1  0
 12  7  1  0
M  END
$$$$
