
     RDKit          3D

 30 33  0  0  0  0  0  0  0  0999 V2000
  -11.3963   44.3755  -17.1933 C   0  0  0  0  0  0  0  0  0  0  0  0
  -12.0198   43.6194  -18.3315 C   0  0  0  0  0  0  0  0  0  0  0  0
  -13.4133   43.5838  -18.2315 O   0  0  0  0  0  0  0  0  0  0  0  0
  -14.2715   43.9252  -19.2612 C   0  0  0  0  0  0  0  0  0  0  0  0
  -13.8059   44.1018  -20.5573 C   0  0  0  0  0  0  0  0  0  0  0  0
  -14.7164   44.4473  -21.5572 C   0  0  0  0  0  0  0  0  0  0  0  0
  -16.0533   44.6143  -21.2862 C   0  0  0  0  0  0  0  0  0  0  0  0
  -16.9497   44.9588  -22.3850 C   0  0  0  0  0  0  0  0  0  0  0  0
  -17.5063   43.8039  -23.1210 C   0  0  0  0  0  0  0  0  0  0  0  0
  -17.6425   42.5594  -22.4905 C   0  0  0  0  0  0  0  0  0  0  0  0
  -18.1351   41.4572  -23.1142 C   0  0  0  0  0  0  0  0  0  0  0  0
  -18.2535   40.1821  -22.3953 C   0  0  2  0  0  0  0  0  0  0  0  0
  -17.0085   39.7029  -21.9921 O   0  0  0  0  0  0  0  0  0  0  0  0
  -16.9621   38.3559  -22.2891 C   0  0  0  0  0  0  0  0  0  0  0  0
  -18.4073   38.0412  -22.5841 C   0  0  2  0  0  0  0  0  0  0  0  0
  -18.4672   36.8607  -23.5088 C   0  0  0  0  0  0  0  0  0  0  0  0
  -19.7963   36.6306  -23.8597 O   0  0  0  0  0  0  0  0  0  0  0  0
  -18.8309   39.2189  -23.1956 O   0  0  0  0  0  0  0  0  0  0  0  0
  -19.2218   37.8529  -21.3342 C   0  0  1  0  0  0  0  0  0  0  0  0
  -19.0088   36.6427  -20.7196 O   0  0  0  0  0  0  0  0  0  0  0  0
  -18.9619   38.9949  -20.3890 C   0  0  2  0  0  0  0  0  0  0  0  0
  -19.8589   38.9811  -19.3225 O   0  0  0  0  0  0  0  0  0  0  0  0
  -19.0920   40.3042  -21.1393 C   0  0  1  0  0  0  0  0  0  0  0  0
  -18.7240   41.3886  -20.3560 O   0  0  0  0  0  0  0  0  0  0  0  0
  -18.5163   41.5780  -24.4289 C   0  0  0  0  0  0  0  0  0  0  0  0
  -18.4076   42.7596  -25.0920 C   0  0  0  0  0  0  0  0  0  0  0  0
  -17.8961   43.8788  -24.4219 C   0  0  0  0  0  0  0  0  0  0  0  0
  -17.7879   45.3715  -25.3079 Cl  0  0  0  0  0  0  0  0  0  0  0  0
  -16.4910   44.4384  -20.0217 C   0  0  0  0  0  0  0  0  0  0  0  0
  -15.6267   44.0965  -18.9988 C   0  0  0  0  0  0  0  0  0  0  0  0
  1  2  1  0
  2  3  1  0
  3  4  1  0
  4  5  2  0
  5  6  1  0
  6  7  2  0
  7  8  1  0
  8  9  1  0
  9 10  2  0
 10 11  1  0
 12 11  1  6
 12 13  1  0
 13 14  1  0
 14 15  1  0
 15 16  1  6
 16 17  1  0
 15 18  1  0
 15 19  1  0
 19 20  1  1
 19 21  1  0
 21 22  1  1
 21 23  1  0
 23 24  1  1
 11 25  2  0
 25 26  1  0
 26 27  2  0
 27 28  1  0
  7 29  1  0
 29 30  2  0
 30  4  1  0
 27  9  1  0
 18 12  1  0
 23 12  1  0
M  END
$$$$
