
     RDKit          3D

 11 12  0  0  0  0  0  0  0  0999 V2000
  -20.5992   37.2040  -22.1176 O   0  0  0  0  0  0  0  0  0  0  0  0
  -19.3703   36.5763  -21.9416 C   0  0  0  0  0  0  0  0  0  0  0  0
  -18.2101   37.2757  -21.6831 C   0  0  0  0  0  0  0  0  0  0  0  0
  -17.0178   36.5897  -21.5178 C   0  0  0  0  0  0  0  0  0  0  0  0
  -17.0124   35.2113  -21.6153 C   0  0  0  0  0  0  0  0  0  0  0  0
  -18.1715   34.5095  -21.8738 C   0  0  0  0  0  0  0  0  0  0  0  0
  -18.1882   33.1160  -21.9763 C   0  0  0  0  0  0  0  0  0  0  0  0
  -19.3463   32.4235  -22.2339 C   0  0  0  0  0  0  0  0  0  0  0  0
  -20.5079   33.1406  -22.3914 C   0  0  0  0  0  0  0  0  0  0  0  0
  -20.4736   34.4991  -22.2882 N   0  0  0  0  0  0  0  0  0  0  0  0
  -19.3620   35.1863  -22.0394 C   0  0  0  0  0  0  0  0  0  0  0  0
  1  2  1  0
  2  3  2  0
  3  4  1  0
  4  5  2  0
  5  6  1  0
  6  7  2  0
  7  8  1  0
  8  9  2  0
  9 10  1  0
 10 11  2  0
 11  2  1  0
 11  6  1  0
M  END
$$$$
