
     RDKit          3D

 34 35  0  0  0  0  0  0  0  0999 V2000
  -20.0601   31.2632  -23.3906 N   0  0  0  0  0  0  0  0  0  0  0  0
  -19.7092   31.5141  -22.1954 C   0  0  0  0  0  0  0  0  0  0  0  0
  -19.3901   32.8361  -21.8127 N   0  0  0  0  0  0  0  0  0  0  0  0
  -18.6641   33.7516  -22.6700 C   0  0  0  0  0  0  0  0  0  0  0  0
  -18.4055   35.0749  -21.9884 C   0  0  0  0  0  0  0  0  0  0  0  0
  -17.7020   36.0015  -22.9315 C   0  0  0  0  0  0  0  0  0  0  0  0
  -17.6184   37.4141  -22.3877 C   0  0  0  0  0  0  0  0  0  0  0  0
  -18.5453   38.3467  -23.1005 C   0  0  0  0  0  0  0  0  0  0  0  0
  -18.0180   39.7544  -22.9734 C   0  0  0  0  0  0  0  0  0  0  0  0
  -18.8566   40.6258  -22.2023 N   0  0  0  0  0  0  0  0  0  0  0  0
  -18.2882   41.7074  -21.4926 C   0  0  0  0  0  0  0  0  0  0  0  0
  -17.0494   41.9506  -21.5740 N   0  0  0  0  0  0  0  0  0  0  0  0
  -19.1327   42.5155  -20.6837 N   0  0  0  0  0  0  0  0  0  0  0  0
  -18.6083   43.2123  -19.5503 C   0  0  0  0  0  0  0  0  0  0  0  0
  -17.4332   43.6667  -19.5908 N   0  0  0  0  0  0  0  0  0  0  0  0
  -19.4345   43.3905  -18.4193 N   0  0  0  0  0  0  0  0  0  0  0  0
  -19.2804   44.5003  -17.5527 C   0  0  0  0  0  0  0  0  0  0  0  0
  -20.4063   45.0176  -16.8937 C   0  0  0  0  0  0  0  0  0  0  0  0
  -20.3335   46.0849  -16.0304 C   0  0  0  0  0  0  0  0  0  0  0  0
  -19.0877   46.6453  -15.8278 C   0  0  0  0  0  0  0  0  0  0  0  0
  -18.9391   48.0175  -14.7309 Cl  0  0  0  0  0  0  0  0  0  0  0  0
  -17.9623   46.1829  -16.4414 C   0  0  0  0  0  0  0  0  0  0  0  0
  -18.0736   45.0956  -17.3126 C   0  0  0  0  0  0  0  0  0  0  0  0
  -19.6604   30.4209  -21.2780 N   0  0  0  0  0  0  0  0  0  0  0  0
  -19.5884   30.6234  -19.8706 C   0  0  0  0  0  0  0  0  0  0  0  0
  -18.4881   30.3316  -19.2780 N   0  0  0  0  0  0  0  0  0  0  0  0
  -20.6806   31.1270  -19.1178 N   0  0  0  0  0  0  0  0  0  0  0  0
  -20.6408   31.4249  -17.7461 C   0  0  0  0  0  0  0  0  0  0  0  0
  -19.5311   31.2253  -16.9745 C   0  0  0  0  0  0  0  0  0  0  0  0
  -19.5226   31.5090  -15.6058 C   0  0  0  0  0  0  0  0  0  0  0  0
  -20.6700   32.0033  -15.0302 C   0  0  0  0  0  0  0  0  0  0  0  0
  -20.7345   32.3812  -13.3076 Cl  0  0  0  0  0  0  0  0  0  0  0  0
  -21.8096   32.2186  -15.7766 C   0  0  0  0  0  0  0  0  0  0  0  0
  -21.7710   31.9218  -17.1337 C   0  0  0  0  0  0  0  0  0  0  0  0
  1  2  2  0
  2  3  1  0
  3  4  1  0
  4  5  1  0
  5  6  1  0
  6  7  1  0
  7  8  1  0
  8  9  1  0
  9 10  1  0
 10 11  1  0
 11 12  2  0
 11 13  1  0
 13 14  1  0
 14 15  2  0
 14 16  1  0
 16 17  1  0
 17 18  2  0
 18 19  1  0
 19 20  2  0
 20 21  1  0
 20 22  1  0
 22 23  2  0
  2 24  1  0
 24 25  1  0
 25 26  2  0
 25 27  1  0
 27 28  1  0
 28 29  2  0
 29 30  1  0
 30 31  2  0
 31 32  1  0
 31 33  1  0
 33 34  2  0
 23 17  1  0
 34 28  1  0
M  END
$$$$
