
     RDKit          3D

 24 25  0  0  0  0  0  0  0  0999 V2000
   -8.7153   16.4419  -42.6718 C   0  0  0  0  0  0  0  0  0  0  0  0
  -10.1792   16.4940  -42.7210 N   0  0  0  0  0  0  0  0  0  0  0  0
  -10.8544   15.5457  -41.4324 S   0  0  0  0  0  6  0  0  0  0  0  0
  -12.3322   15.5274  -41.6057 O   0  0  0  0  0  0  0  0  0  0  0  0
  -10.3892   14.1089  -41.5879 O   0  0  0  0  0  0  0  0  0  0  0  0
  -10.3425   16.2108  -39.8816 C   0  0  0  0  0  0  0  0  0  0  0  0
  -10.7952   17.6126  -39.6762 C   0  0  0  0  0  0  0  0  0  0  0  0
  -12.2694   17.7954  -39.6790 C   0  0  0  0  0  0  0  0  0  0  0  0
  -12.9999   18.1088  -40.8019 C   0  0  0  0  0  0  0  0  0  0  0  0
  -14.3764   18.2705  -40.7977 C   0  0  0  0  0  0  0  0  0  0  0  0
  -15.0441   18.1065  -39.5955 C   0  0  0  0  0  0  0  0  0  0  0  0
  -16.3437   18.1938  -39.2675 N   0  0  0  0  0  0  0  0  0  0  0  0
  -16.4560   17.9418  -37.9541 C   0  0  0  0  0  0  0  0  0  0  0  0
  -15.2053   17.6878  -37.4278 C   0  0  0  0  0  0  0  0  0  0  0  0
  -14.9555   17.3770  -36.0356 C   0  0  0  0  0  0  0  0  0  0  0  0
  -14.9947   15.9396  -35.6575 C   0  0  0  0  0  0  0  0  0  0  0  0
  -15.0919   15.8336  -34.1356 C   0  0  0  0  0  0  0  0  0  0  0  0
  -16.3106   16.3581  -33.6191 N   0  0  0  0  0  0  0  0  0  0  0  0
  -16.0057   17.1826  -32.4629 C   0  0  0  0  0  0  0  0  0  0  0  0
  -16.9820   17.1674  -34.5851 C   0  0  0  0  0  0  0  0  0  0  0  0
  -15.9671   18.1175  -35.1835 C   0  0  0  0  0  0  0  0  0  0  0  0
  -14.3018   17.7908  -38.4665 C   0  0  0  0  0  0  0  0  0  0  0  0
  -12.9361   17.6314  -38.4766 C   0  0  0  0  0  0  0  0  0  0  0  0
  -13.1399   16.9876  -38.4722 Cl  0  0  0  0  0  0  0  0  0  0  0  0
  1  2  1  0
  2  3  1  0
  3  4  2  0
  3  5  2  0
  3  6  1  0
  6  7  1  0
  7  8  1  0
  8  9  2  0
  9 10  1  0
 10 11  2  0
 11 12  1  0
 12 13  1  0
 13 14  2  0
 14 15  1  0
 15 16  1  0
 16 17  1  0
 17 18  1  0
 18 19  1  0
 18 20  1  0
 20 21  1  0
 14 22  1  0
 22 23  2  0
 23  8  1  0
 22 11  1  0
 21 15  1  0
M  END
$$$$
