
     RDKit          3D

 35 37  0  0  0  0  0  0  0  0999 V2000
  -18.7670   41.3807  -21.8673 Cl  0  0  0  0  0  0  0  0  0  0  0  0
  -19.9617   40.6213  -25.3926 O   0  0  0  0  0  0  0  0  0  0  0  0
  -19.0133   40.6103  -24.5634 C   0  0  0  0  0  0  0  0  0  0  0  0
  -19.0645   39.6060  -23.4830 C   0  0  1  0  0  0  0  0  0  0  0  0
  -19.1564   38.2283  -24.1232 C   0  0  0  0  0  0  0  0  0  0  0  0
  -19.2188   37.1280  -23.1436 C   0  0  0  0  0  0  0  0  0  0  0  0
  -20.4684   36.7610  -22.6326 C   0  0  0  0  0  0  0  0  0  0  0  0
  -20.5353   35.7308  -21.7319 C   0  0  0  0  0  0  0  0  0  0  0  0
  -19.3945   35.0694  -21.3373 C   0  0  0  0  0  0  0  0  0  0  0  0
  -18.1507   35.4049  -21.8204 C   0  0  0  0  0  0  0  0  0  0  0  0
  -16.9197   34.6914  -21.3948 C   0  0  0  0  0  0  0  0  0  0  0  0
  -16.6452   33.7374  -22.3676 F   0  0  0  0  0  0  0  0  0  0  0  0
  -17.1352   34.0990  -20.1697 F   0  0  0  0  0  0  0  0  0  0  0  0
  -15.8940   35.5959  -21.3566 F   0  0  0  0  0  0  0  0  0  0  0  0
  -18.0968   36.4589  -22.7399 C   0  0  0  0  0  0  0  0  0  0  0  0
  -17.9586   39.7234  -22.5970 N   0  0  0  0  0  0  0  0  0  0  0  0
  -18.4063   40.0023  -20.9727 S   0  0  0  0  0  6  0  0  0  0  0  0
  -19.2349   38.8665  -20.4222 O   0  0  0  0  0  0  0  0  0  0  0  0
  -17.1420   40.0463  -20.1486 O   0  0  0  0  0  0  0  0  0  0  0  0
  -19.2859   41.4859  -20.7436 C   0  0  0  0  0  0  0  0  0  0  0  0
  -20.6533   41.5004  -20.8155 C   0  0  0  0  0  0  0  0  0  0  0  0
  -21.3466   42.6717  -20.6347 C   0  0  0  0  0  0  0  0  0  0  0  0
  -22.6979   42.7344  -20.6969 F   0  0  0  0  0  0  0  0  0  0  0  0
  -20.6372   43.8288  -20.3800 C   0  0  0  0  0  0  0  0  0  0  0  0
  -19.2534   43.8220  -20.3057 C   0  0  0  0  0  0  0  0  0  0  0  0
  -18.5734   42.6381  -20.4896 C   0  0  0  0  0  0  0  0  0  0  0  0
  -18.4547   45.0423  -20.0342 C   0  0  0  0  0  0  0  0  0  0  0  0
  -19.3940   46.0949  -19.5065 C   0  0  0  0  0  0  0  0  0  0  0  0
  -20.4940   46.1918  -20.4742 N   0  0  0  0  0  0  0  0  0  0  0  0
  -21.3912   45.0900  -20.1857 C   0  0  0  0  0  0  0  0  0  0  0  0
  -17.9559   41.5298  -24.6833 N   0  0  0  0  0  0  0  0  0  0  0  0
  -17.8846   42.5443  -25.7463 C   0  0  0  0  0  0  0  0  0  0  0  0
  -16.3654   42.6028  -25.9374 C   0  0  0  0  0  0  0  0  0  0  0  0
  -15.9400   42.7529  -24.4920 C   0  0  0  0  0  0  0  0  0  0  0  0
  -16.7893   41.6517  -23.8365 C   0  0  0  0  0  0  0  0  0  0  0  0
  2  3  2  0
  3  4  1  0
  4  5  1  6
  5  6  1  0
  6  7  2  0
  7  8  1  0
  8  9  2  0
  9 10  1  0
 10 11  1  0
 11 12  1  0
 11 13  1  0
 11 14  1  0
 10 15  2  0
  4 16  1  0
 16 17  1  0
 17 18  2  0
 17 19  2  0
 17 20  1  0
 20 21  2  0
 21 22  1  0
 22 23  1  0
 22 24  2  0
 24 25  1  0
 25 26  2  0
 25 27  1  0
 27 28  1  0
 28 29  1  0
 29 30  1  0
  3 31  1  0
 31 32  1  0
 32 33  1  0
 33 34  1  0
 34 35  1  0
 15  6  1  0
 26 20  1  0
 35 31  1  0
 30 24  1  0
M  END
$$$$
