
     RDKit          3D

 34 34  0  0  0  0  0  0  0  0999 V2000
  -20.6420   38.6686  -23.0176 N   0  0  0  0  0  0  0  0  0  0  0  0
  -19.2078   38.8378  -22.6725 C   0  0  1  0  0  0  0  0  0  0  0  0
  -19.0247   39.4266  -21.3471 C   0  0  0  0  0  0  0  0  0  0  0  0
  -17.5917   39.6908  -21.0839 C   0  0  0  0  0  0  0  0  0  0  0  0
  -16.7254   38.8383  -20.7717 O   0  0  0  0  0  0  0  0  0  0  0  0
  -17.1665   41.0688  -21.2028 N   0  0  0  0  0  0  0  0  0  0  0  0
  -18.1237   42.0652  -21.5599 C   0  0  0  0  0  0  0  0  0  0  0  0
  -17.4350   43.4063  -21.8202 C   0  0  0  0  0  0  0  0  0  0  0  0
  -16.5857   43.6507  -20.6454 N   0  0  0  0  0  0  0  0  0  0  0  0
  -15.7710   42.6769  -20.2119 C   0  0  0  0  0  0  0  0  0  0  0  0
  -15.1065   43.1306  -19.1441 N   0  0  0  0  0  0  0  0  0  0  0  0
  -15.5291   44.3832  -18.9409 N   0  0  0  0  0  0  0  0  0  0  0  0
  -16.4452   44.7185  -19.8630 C   0  0  0  0  0  0  0  0  0  0  0  0
  -17.1614   46.0122  -19.9933 C   0  0  0  0  0  0  0  0  0  0  0  0
  -17.5091   46.2801  -21.3007 F   0  0  0  0  0  0  0  0  0  0  0  0
  -18.2653   46.0168  -19.1790 F   0  0  0  0  0  0  0  0  0  0  0  0
  -16.2592   46.9999  -19.6126 F   0  0  0  0  0  0  0  0  0  0  0  0
  -15.7780   41.3960  -20.9537 C   0  0  0  0  0  0  0  0  0  0  0  0
  -18.4882   37.5785  -23.0399 C   0  0  0  0  0  0  0  0  0  0  0  0
  -19.0399   36.3351  -22.4606 C   0  0  0  0  0  0  0  0  0  0  0  0
  -19.8556   35.5919  -23.3614 C   0  0  0  0  0  0  0  0  0  0  0  0
  -20.4628   34.4209  -22.9904 C   0  0  0  0  0  0  0  0  0  0  0  0
  -21.2328   33.7253  -23.8533 F   0  0  0  0  0  0  0  0  0  0  0  0
  -20.2964   33.9267  -21.7166 C   0  0  0  0  0  0  0  0  0  0  0  0
  -20.9095   32.7542  -21.3592 F   0  0  0  0  0  0  0  0  0  0  0  0
  -19.5175   34.6420  -20.8670 C   0  0  0  0  0  0  0  0  0  0  0  0
  -18.8755   35.8474  -21.2055 C   0  0  0  0  0  0  0  0  0  0  0  0
  -18.1162   36.4608  -20.2803 F   0  0  0  0  0  0  0  0  0  0  0  0
  -18.3439   39.8400  -21.2010 O   0  0  0  0  0  0  0  0  0  0  0  0
  -16.7163   39.5501  -21.7496 O   0  0  0  0  0  0  0  0  0  0  0  0
  -18.1590   39.9667  -21.6649 P   0  0  0  0  0  5  0  0  0  0  0  0
  -18.8486   39.6554  -20.1733 O   0  0  0  0  0  0  0  0  0  0  0  0
  -18.9755   39.1621  -22.9280 O   0  0  0  0  0  0  0  0  0  0  0  0
  -18.3292   41.6257  -21.9956 O   0  0  0  0  0  0  0  0  0  0  0  0
  2  1  1  1
  2  3  1  0
  3  4  1  0
  4  5  2  0
  4  6  1  0
  6  7  1  0
  7  8  1  0
  8  9  1  0
  9 10  1  0
 10 11  2  0
 11 12  1  0
 12 13  2  0
 13 14  1  0
 14 15  1  0
 14 16  1  0
 14 17  1  0
 10 18  1  0
  2 19  1  0
 19 20  1  0
 20 21  2  0
 21 22  1  0
 22 23  1  0
 22 24  2  0
 24 25  1  0
 24 26  1  0
 26 27  2  0
 27 28  1  0
 30 31  2  0
 31 32  1  0
 31 33  1  0
 31 34  1  0
 18  6  1  0
 27 20  1  0
 13  9  1  0
M  END
$$$$
