
     RDKit          3D

 17 18  0  0  0  0  0  0  0  0999 V2000
  -14.7349    2.8640  -35.3175 C   0  0  0  0  0  0  0  0  0  0  0  0
  -14.5045    1.3504  -35.4121 C   0  0  0  0  0  0  0  0  0  0  0  0
  -14.6772    0.9489  -36.8295 C   0  0  0  0  0  0  0  0  0  0  0  0
  -15.2931    0.6268  -34.4047 C   0  0  0  0  0  0  0  0  0  0  0  0
  -16.5538    0.5858  -34.5634 O   0  0  0  0  0  0  0  0  0  0  0  0
  -14.7610   -0.0383  -33.2415 C   0  0  0  0  0  0  0  0  0  0  0  0
  -13.5517    0.1401  -32.6728 C   0  0  0  0  0  0  0  0  0  0  0  0
  -12.3433    0.9183  -33.0120 C   0  0  0  0  0  0  0  0  0  0  0  0
  -11.9210    1.8015  -31.8358 C   0  0  0  0  0  0  0  0  0  0  0  0
  -11.1594    0.1440  -33.4274 C   0  0  0  0  0  0  0  0  0  0  0  0
  -13.5364   -0.6660  -31.5681 N   0  0  0  0  0  0  0  0  0  0  0  0
  -14.6807   -1.3101  -31.4646 N   0  0  0  0  0  0  0  0  0  0  0  0
  -15.1768   -2.2098  -30.5771 C   0  0  0  0  0  0  0  0  0  0  0  0
  -16.4280   -2.7675  -30.6618 C   0  0  0  0  0  0  0  0  0  0  0  0
  -17.2519   -2.4108  -31.7001 C   0  0  0  0  0  0  0  0  0  0  0  0
  -16.7601   -1.4922  -32.6158 C   0  0  0  0  0  0  0  0  0  0  0  0
  -15.4917   -0.9678  -32.4743 C   0  0  0  0  0  0  0  0  0  0  0  0
  1  2  1  0
  2  3  1  0
  2  4  1  0
  4  5  2  0
  4  6  1  0
  6  7  1  0
  7  8  1  0
  8  9  1  0
  8 10  1  0
  7 11  2  0
 11 12  1  0
 12 13  1  0
 13 14  2  0
 14 15  1  0
 15 16  2  0
 16 17  1  0
 17  6  2  0
 17 12  1  0
M  END
$$$$
