
     RDKit          3D

 31 32  0  0  0  0  0  0  0  0999 V2000
  -19.0621   49.1406  -14.2259 C   0  0  0  0  0  0  0  0  0  0  0  0
  -18.9121   48.0450  -15.2109 C   0  0  0  0  0  0  0  0  0  0  0  0
  -19.2057   46.8470  -14.8983 O   0  0  0  0  0  0  0  0  0  0  0  0
  -18.4379   48.3316  -16.5123 N   0  0  0  0  0  0  0  0  0  0  0  0
  -18.3290   47.2869  -17.4554 C   0  0  0  0  0  0  0  0  0  0  0  0
  -18.5765   45.9942  -17.0577 C   0  0  0  0  0  0  0  0  0  0  0  0
  -18.4694   44.9903  -17.9726 C   0  0  0  0  0  0  0  0  0  0  0  0
  -18.1231   45.2120  -19.2804 C   0  0  0  0  0  0  0  0  0  0  0  0
  -17.9910   44.2869  -20.2431 O   0  0  0  0  0  0  0  0  0  0  0  0
  -17.9313   42.9925  -20.5463 C   0  0  0  0  0  0  0  0  0  0  0  0
  -18.1070   42.5419  -21.9784 C   0  0  2  0  0  0  0  0  0  0  0  0
  -17.1214   43.1476  -22.9085 C   0  0  0  0  0  0  0  0  0  0  0  0
  -19.4169   42.7249  -22.4081 O   0  0  0  0  0  0  0  0  0  0  0  0
  -17.8059   41.0416  -21.9467 C   0  0  0  0  0  0  0  0  0  0  0  0
  -16.6799   40.6621  -21.5737 O   0  0  0  0  0  0  0  0  0  0  0  0
  -18.7974   40.1140  -22.3365 N   0  0  0  0  0  0  0  0  0  0  0  0
  -18.6434   38.7139  -22.3927 C   0  0  0  0  0  0  0  0  0  0  0  0
  -19.4757   38.0060  -23.2505 C   0  0  0  0  0  0  0  0  0  0  0  0
  -19.4044   36.6377  -23.3763 C   0  0  0  0  0  0  0  0  0  0  0  0
  -18.4918   35.8976  -22.6471 C   0  0  0  0  0  0  0  0  0  0  0  0
  -18.4917   34.4891  -22.8075 N   0  0  0  0  0  4  0  0  0  0  0  0
  -18.3579   34.0679  -24.0041 O   0  0  0  0  0  0  0  0  0  0  0  0
  -18.6260   33.5957  -21.7910 O   0  0  0  0  0  1  0  0  0  0  0  0
  -17.6680   36.5802  -21.8016 C   0  0  0  0  0  0  0  0  0  0  0  0
  -16.6356   35.8821  -20.9915 C   0  0  0  0  0  0  0  0  0  0  0  0
  -17.1814   35.0114  -20.0732 F   0  0  0  0  0  0  0  0  0  0  0  0
  -15.7816   35.1587  -21.7976 F   0  0  0  0  0  0  0  0  0  0  0  0
  -15.9091   36.8729  -20.3249 F   0  0  0  0  0  0  0  0  0  0  0  0
  -17.7514   37.9809  -21.6820 C   0  0  0  0  0  0  0  0  0  0  0  0
  -17.8696   46.5548  -19.6808 C   0  0  0  0  0  0  0  0  0  0  0  0
  -17.9841   47.5347  -18.7483 C   0  0  0  0  0  0  0  0  0  0  0  0
  1  2  1  0
  2  3  2  0
  2  4  1  0
  4  5  1  0
  5  6  2  0
  6  7  1  0
  7  8  2  0
  8  9  1  0
  9 10  1  0
 10 11  1  0
 11 12  1  6
 11 13  1  0
 11 14  1  0
 14 15  2  0
 14 16  1  0
 16 17  1  0
 17 18  2  0
 18 19  1  0
 19 20  2  0
 20 21  1  0
 21 22  2  0
 21 23  1  0
 20 24  1  0
 24 25  1  0
 25 26  1  0
 25 27  1  0
 25 28  1  0
 24 29  2  0
  8 30  1  0
 30 31  2  0
 31  5  1  0
 29 17  1  0
M  CHG  2  21   1  23  -1
M  END
$$$$
