
     RDKit          3D

 12 13  0  0  0  0  0  0  0  0999 V2000
  -19.4346   45.5792  -25.8512 C   0  0  0  0  0  0  0  0  0  0  0  0
  -18.6830   44.9547  -24.7183 C   0  0  0  0  0  0  0  0  0  0  0  0
  -17.5417   45.3298  -24.0647 C   0  0  0  0  0  0  0  0  0  0  0  0
  -17.1062   44.5488  -23.0704 C   0  0  0  0  0  0  0  0  0  0  0  0
  -17.7821   43.4458  -22.7474 C   0  0  0  0  0  0  0  0  0  0  0  0
  -17.5133   42.4185  -21.6942 C   0  0  0  0  0  0  0  0  0  0  0  0
  -16.4366   42.5842  -20.7879 C   0  0  0  0  0  0  0  0  0  0  0  0
  -16.5581   41.1267  -19.7769 S   0  0  0  0  0  0  0  0  0  0  0  0
  -18.0425   40.4602  -20.6873 C   0  0  0  0  0  0  0  0  0  0  0  0
  -18.5555   39.2200  -20.2205 N   0  0  0  0  0  0  0  0  0  0  0  0
  -18.1974   41.3244  -21.5049 N   0  0  0  0  0  0  0  0  0  0  0  0
  -19.1209   43.4358  -23.8607 S   0  0  0  0  0  0  0  0  0  0  0  0
  1  2  1  0
  2  3  2  0
  3  4  1  0
  4  5  2  0
  5  6  1  0
  6  7  2  0
  7  8  1  0
  8  9  1  0
  9 10  1  0
  9 11  2  0
  5 12  1  0
 12  2  1  0
 11  6  1  0
M  END
$$$$
