
     RDKit          3D

 22 24  0  0  0  0  0  0  0  0999 V2000
  -25.2637   14.0900  -33.2260 C   0  0  0  0  0  0  0  0  0  0  0  0
  -24.5644   15.0794  -32.4354 N   0  0  0  0  0  0  0  0  0  0  0  0
  -25.4691   15.9718  -31.7472 C   0  0  0  0  0  0  0  0  0  0  0  0
  -23.3948   15.9365  -33.3670 S   0  0  0  0  0  6  0  0  0  0  0  0
  -23.5086   17.3921  -33.0217 O   0  0  0  0  0  0  0  0  0  0  0  0
  -23.6932   15.8118  -34.8360 O   0  0  0  0  0  0  0  0  0  0  0  0
  -21.8135   15.3021  -32.9770 C   0  0  0  0  0  0  0  0  0  0  0  0
  -21.6619   13.9474  -32.7733 C   0  0  0  0  0  0  0  0  0  0  0  0
  -20.4480   13.3690  -32.4621 C   0  0  0  0  0  0  0  0  0  0  0  0
  -19.3557   14.2058  -32.3564 C   0  0  0  0  0  0  0  0  0  0  0  0
  -19.4523   15.5663  -32.5501 C   0  0  0  0  0  0  0  0  0  0  0  0
  -18.2816   16.3715  -32.4251 N   0  0  0  0  0  0  0  0  0  0  0  0
  -17.6969   17.5305  -33.5871 S   0  0  0  0  0  0  0  0  0  0  0  0
  -16.2551   18.0447  -32.6608 C   0  0  0  0  0  0  0  0  0  0  0  0
  -15.2413   18.9632  -32.9103 C   0  0  0  0  0  0  0  0  0  0  0  0
  -14.2414   19.1321  -31.9645 C   0  0  0  0  0  0  0  0  0  0  0  0
  -14.3151   18.3715  -30.8240 C   0  0  0  0  0  0  0  0  0  0  0  0
  -15.3188   17.4825  -30.6096 C   0  0  0  0  0  0  0  0  0  0  0  0
  -16.3589   17.2736  -31.5399 C   0  0  0  0  0  0  0  0  0  0  0  0
  -17.3973   16.4266  -31.4359 C   0  0  0  0  0  0  0  0  0  0  0  0
  -17.6047   15.6381  -30.4134 O   0  0  0  0  0  0  0  0  0  0  0  0
  -20.6865   16.0910  -32.8584 C   0  0  0  0  0  0  0  0  0  0  0  0
  1  2  1  0
  2  3  1  0
  2  4  1  0
  4  5  2  0
  4  6  2  0
  4  7  1  0
  7  8  2  0
  8  9  1  0
  9 10  2  0
 10 11  1  0
 11 12  1  0
 12 13  1  0
 13 14  1  0
 14 15  2  0
 15 16  1  0
 16 17  2  0
 17 18  1  0
 18 19  2  0
 19 20  1  0
 20 21  2  0
 11 22  2  0
 22  7  1  0
 20 12  1  0
 19 14  1  0
M  END
$$$$
