
     RDKit          3D

 33 38  0  0  0  0  0  0  0  0999 V2000
  -26.0937   15.2713  -34.0258 C   0  0  0  0  0  0  0  0  0  0  0  0
  -24.9161   15.7078  -33.1785 C   0  0  0  0  0  0  0  0  0  0  0  0
  -23.6187   15.6152  -33.9116 C   0  0  0  0  0  0  0  0  0  0  0  0
  -22.9532   16.7436  -34.1850 O   0  0  0  0  0  0  0  0  0  0  0  0
  -22.0256   17.2398  -34.9997 C   0  0  0  0  0  0  0  0  0  0  0  0
  -20.6723   16.9174  -34.7580 C   0  0  0  0  0  0  0  0  0  0  0  0
  -19.6698   17.3817  -35.5380 C   0  0  0  0  0  0  0  0  0  0  0  0
  -19.9579   18.2082  -36.6218 C   0  0  0  0  0  0  0  0  0  0  0  0
  -21.2670   18.5151  -36.8471 C   0  0  0  0  0  0  0  0  0  0  0  0
  -22.3050   18.0568  -36.0698 C   0  0  0  0  0  0  0  0  0  0  0  0
  -21.2359   19.3233  -37.9521 N   0  0  0  0  0  0  0  0  0  0  0  0
  -19.9627   19.4775  -38.3491 C   0  0  0  0  0  0  0  0  0  0  0  0
  -19.1495   18.7761  -37.5137 N   0  0  0  0  0  0  0  0  0  0  0  0
  -17.7315   18.6637  -37.5772 C   0  0  0  0  0  0  0  0  0  0  0  0
  -17.0202   19.0473  -38.7079 C   0  0  0  0  0  0  0  0  0  0  0  0
  -15.6517   18.9549  -38.7850 C   0  0  0  0  0  0  0  0  0  0  0  0
  -14.9311   18.4612  -37.7011 C   0  0  0  0  0  0  0  0  0  0  0  0
  -13.5582   18.3599  -37.7433 C   0  0  0  0  0  0  0  0  0  0  0  0
  -12.8505   17.8737  -36.6638 C   0  0  0  0  0  0  0  0  0  0  0  0
  -13.5955   17.5018  -35.5587 C   0  0  0  0  0  0  0  0  0  0  0  0
  -14.9788   17.5882  -35.4784 C   0  0  0  0  0  0  0  0  0  0  0  0
  -15.6765   17.1925  -34.3297 N   0  0  0  0  0  0  0  0  0  0  0  0
  -16.7559   18.0029  -33.8129 C   0  0  0  0  0  0  0  0  0  0  0  0
  -16.4575   18.1375  -32.3037 C   0  0  0  0  0  0  0  0  0  0  0  0
  -16.8147   16.8098  -31.7182 C   0  0  0  0  0  0  0  0  0  0  0  0
  -16.3311   16.7365  -30.3279 N   0  0  0  0  0  0  0  0  0  0  0  0
  -16.3470   15.6599  -32.5228 C   0  0  0  0  0  0  0  0  0  0  0  0
  -15.3681   15.9725  -33.6199 C   0  0  0  0  0  0  0  0  0  0  0  0
  -15.6545   18.0872  -36.5953 C   0  0  0  0  0  0  0  0  0  0  0  0
  -16.9989   18.1941  -36.5592 N   0  0  0  0  0  0  0  0  0  0  0  0
  -24.8853   14.7949  -31.9435 C   0  0  0  0  0  0  0  0  0  0  0  0
  -25.5436   15.7892  -31.1927 O   0  0  0  0  0  0  0  0  0  0  0  0
  -25.1414   16.7484  -32.1577 C   0  0  0  0  0  0  0  0  0  0  0  0
  1  2  1  0
  2  3  1  0
  3  4  1  0
  4  5  1  0
  5  6  2  0
  6  7  1  0
  7  8  2  0
  8  9  1  0
  9 10  2  0
  9 11  1  0
 11 12  2  0
 12 13  1  0
 13 14  1  0
 14 15  2  0
 15 16  1  0
 16 17  2  0
 17 18  1  0
 18 19  2  0
 19 20  1  0
 20 21  2  0
 21 22  1  0
 22 23  1  0
 23 24  1  0
 24 25  1  0
 25 26  1  0
 25 27  1  0
 27 28  1  0
 21 29  1  0
 29 30  2  0
  2 31  1  0
 31 32  1  0
 32 33  1  0
 33  2  1  0
 10  5  1  0
 30 14  1  0
 13  8  1  0
 29 17  1  0
 28 22  1  0
M  END
$$$$
