
     RDKit          3D

 21 23  0  0  0  0  0  0  0  0999 V2000
  -11.3839   42.8187  -19.1982 C   0  0  0  0  0  0  0  0  0  0  0  0
  -11.6887   44.1962  -19.0012 N   0  0  0  0  0  0  0  0  0  0  0  0
  -11.8067   44.6023  -17.6345 C   0  0  0  0  0  0  0  0  0  0  0  0
  -12.6920   44.7224  -19.8677 C   0  0  0  0  0  0  0  0  0  0  0  0
  -14.0782   44.6839  -19.2679 C   0  0  0  0  0  0  0  0  0  0  0  0
  -15.1150   44.9964  -20.2970 C   0  0  0  0  0  0  0  0  0  0  0  0
  -15.1494   46.0804  -21.1446 C   0  0  0  0  0  0  0  0  0  0  0  0
  -16.2522   45.9783  -21.9070 N   0  0  0  0  0  0  0  0  0  0  0  0
  -16.9160   44.8749  -21.5764 C   0  0  0  0  0  0  0  0  0  0  0  0
  -18.1042   44.3195  -22.0645 C   0  0  0  0  0  0  0  0  0  0  0  0
  -18.5540   43.1413  -21.5189 C   0  0  0  0  0  0  0  0  0  0  0  0
  -17.8566   42.5015  -20.5031 C   0  0  0  0  0  0  0  0  0  0  0  0
  -18.3949   41.2327  -19.9685 C   0  0  0  0  0  0  0  0  0  0  0  0
  -18.2752   40.0858  -20.9494 C   0  0  0  0  0  0  0  0  0  0  0  0
  -16.8360   39.6650  -21.1411 C   0  0  0  0  0  0  0  0  0  0  0  0
  -17.0226   38.3616  -21.7186 O   0  0  0  0  0  0  0  0  0  0  0  0
  -18.0422   37.8137  -20.9100 C   0  0  0  0  0  0  0  0  0  0  0  0
  -18.1665   36.5646  -20.7023 O   0  0  0  0  0  0  0  0  0  0  0  0
  -18.8478   38.8681  -20.4090 N   0  0  0  0  0  0  0  0  0  0  0  0
  -16.6835   43.0536  -20.0239 C   0  0  0  0  0  0  0  0  0  0  0  0
  -16.2249   44.2410  -20.5698 C   0  0  0  0  0  0  0  0  0  0  0  0
  1  2  1  0
  2  3  1  0
  2  4  1  0
  4  5  1  0
  5  6  1  0
  6  7  2  0
  7  8  1  0
  8  9  1  0
  9 10  2  0
 10 11  1  0
 11 12  2  0
 12 13  1  0
 13 14  1  0
 14 15  1  0
 15 16  1  0
 16 17  1  0
 17 18  2  0
 17 19  1  0
 12 20  1  0
 20 21  2  0
 21  6  1  0
 21  9  1  0
 19 14  1  0
M  END
$$$$
