
     RDKit          3D

 26 29  0  0  0  0  0  0  0  0999 V2000
  -16.5677   43.6078  -20.8449 C   0  0  0  0  0  0  0  0  0  0  0  0
  -17.4296   42.9155  -21.7250 O   0  0  0  0  0  0  0  0  0  0  0  0
  -17.5018   41.5252  -21.7131 C   0  0  0  0  0  0  0  0  0  0  0  0
  -16.7128   40.7998  -20.8542 C   0  0  0  0  0  0  0  0  0  0  0  0
  -16.7550   39.4059  -20.8109 C   0  0  0  0  0  0  0  0  0  0  0  0
  -17.6088   38.7461  -21.6506 C   0  0  0  0  0  0  0  0  0  0  0  0
  -18.4030   39.4753  -22.5152 C   0  0  0  0  0  0  0  0  0  0  0  0
  -18.3619   40.8584  -22.5588 C   0  0  0  0  0  0  0  0  0  0  0  0
  -19.1667   41.5753  -23.4336 O   0  0  0  0  0  0  0  0  0  0  0  0
  -18.6262   42.0813  -24.6365 C   0  0  0  0  0  0  0  0  0  0  0  0
  -19.2959   38.7648  -23.3920 N   0  0  0  0  0  0  0  0  0  0  0  0
  -19.3660   37.4789  -23.3843 C   0  0  0  0  0  0  0  0  0  0  0  0
  -20.2674   36.7898  -24.2712 N   0  0  0  0  0  0  0  0  0  0  0  0
  -21.1075   37.4988  -25.1704 C   0  0  0  0  0  0  0  0  0  0  0  0
  -22.2982   37.0490  -25.2767 O   0  0  0  0  0  0  0  0  0  0  0  0
  -20.6817   38.6647  -25.9393 C   0  0  0  0  0  0  0  0  0  0  0  0
  -21.5201   39.7134  -26.2372 C   0  0  0  0  0  0  0  0  0  0  0  0
  -21.1092   40.8241  -26.9715 C   0  0  0  0  0  0  0  0  0  0  0  0
  -19.7960   40.8228  -27.3942 C   0  0  0  0  0  0  0  0  0  0  0  0
  -18.9525   39.7988  -27.1114 N   0  0  0  0  0  0  0  0  0  0  0  0
  -19.3897   38.7420  -26.3978 C   0  0  0  0  0  0  0  0  0  0  0  0
  -18.5664   36.6564  -22.5084 N   0  0  0  0  0  0  0  0  0  0  0  0
  -18.4800   35.2446  -22.3314 C   0  0  0  0  0  0  0  0  0  0  0  0
  -17.4511   35.0575  -21.2584 C   0  0  0  0  0  0  0  0  0  0  0  0
  -17.0396   36.3913  -20.9169 N   0  0  0  0  0  0  0  0  0  0  0  0
  -17.6611   37.2770  -21.6132 C   0  0  0  0  0  0  0  0  0  0  0  0
  1  2  1  0
  2  3  1  0
  3  4  2  0
  4  5  1  0
  5  6  2  0
  6  7  1  0
  7  8  2  0
  8  9  1  0
  9 10  1  0
  7 11  1  0
 11 12  2  0
 12 13  1  0
 13 14  1  0
 14 15  2  0
 14 16  1  0
 16 17  2  0
 17 18  1  0
 18 19  2  0
 19 20  1  0
 20 21  2  0
 12 22  1  0
 22 23  1  0
 23 24  1  0
 24 25  1  0
 25 26  2  0
  8  3  1  0
 21 16  1  0
 26 22  1  0
 26  6  1  0
M  END
$$$$
