
     RDKit          3D

 19 21  0  0  0  0  0  0  0  0999 V2000
  -19.4824   38.7433  -23.1980 O   0  0  0  0  0  0  0  0  0  0  0  0
  -18.3808   38.9273  -22.6365 C   0  0  0  0  0  0  0  0  0  0  0  0
  -17.4879   37.8548  -22.5303 N   0  0  0  0  0  0  0  0  0  0  0  0
  -17.9251   36.6005  -21.9158 C   0  0  0  0  0  0  0  0  0  0  0  0
  -18.4385   35.6543  -22.9537 C   0  0  0  0  0  0  0  0  0  0  0  0
  -18.9946   34.4460  -22.3633 C   0  0  0  0  0  0  0  0  0  0  0  0
  -20.3358   34.3865  -22.0275 C   0  0  0  0  0  0  0  0  0  0  0  0
  -20.8923   33.2391  -21.4958 C   0  0  0  0  0  0  0  0  0  0  0  0
  -20.1185   32.1255  -21.2881 C   0  0  0  0  0  0  0  0  0  0  0  0
  -18.7927   32.1633  -21.6118 C   0  0  0  0  0  0  0  0  0  0  0  0
  -18.0372   31.0433  -21.3882 C   0  0  0  0  0  0  0  0  0  0  0  0
  -16.6995   31.0455  -21.6916 C   0  0  0  0  0  0  0  0  0  0  0  0
  -16.1344   32.1843  -22.2204 C   0  0  0  0  0  0  0  0  0  0  0  0
  -16.9170   33.3069  -22.4391 C   0  0  0  0  0  0  0  0  0  0  0  0
  -18.2519   33.3296  -22.1461 C   0  0  0  0  0  0  0  0  0  0  0  0
  -18.0340   40.2462  -22.0995 C   0  0  0  0  0  0  0  0  0  0  0  0
  -16.5878   40.6811  -22.3744 C   0  0  0  0  0  0  0  0  0  0  0  0
  -17.1625   42.0964  -22.4475 C   0  0  0  0  0  0  0  0  0  0  0  0
  -18.4292   41.4267  -23.0011 C   0  0  0  0  0  0  0  0  0  0  0  0
  1  2  2  0
  2  3  1  0
  3  4  1  0
  4  5  1  0
  5  6  1  0
  6  7  2  0
  7  8  1  0
  8  9  2  0
  9 10  1  0
 10 11  2  0
 11 12  1  0
 12 13  2  0
 13 14  1  0
 14 15  2  0
  2 16  1  0
 16 17  1  0
 17 18  1  0
 18 19  1  0
 15  6  1  0
 19 16  1  0
 15 10  1  0
M  END
$$$$
