
     RDKit          3D

  8  8  0  0  0  0  0  0  0  0999 V2000
  -18.3970   33.7191  -21.3570 N   0  0  0  0  0  0  0  0  0  0  0  0
  -18.1732   34.5020  -22.5566 C   0  0  0  0  0  0  0  0  0  0  0  0
  -18.0702   35.9565  -22.2697 C   0  0  0  0  0  0  0  0  0  0  0  0
  -17.1467   36.6544  -21.5508 C   0  0  0  0  0  0  0  0  0  0  0  0
  -17.5148   37.9782  -21.5968 C   0  0  0  0  0  0  0  0  0  0  0  0
  -16.8461   39.0368  -20.9932 O   0  0  0  0  0  0  0  0  0  0  0  0
  -18.6282   38.0311  -22.3293 N   0  0  0  0  0  0  0  0  0  0  0  0
  -18.9283   36.8376  -22.7081 O   0  0  0  0  0  0  0  0  0  0  0  0
  1  2  1  0
  2  3  1  0
  3  4  2  0
  4  5  1  0
  5  6  1  0
  5  7  2  0
  7  8  1  0
  8  3  1  0
M  END
$$$$
