
     RDKit          3D

 15 14  0  0  0  0  0  0  0  0999 V2000
  -16.2171   15.8395  -31.2734 Cl  0  0  0  0  0  0  0  0  0  0  0  0
  -15.9425   15.3043  -28.8048 N   0  0  0  0  0  0  0  0  0  0  0  0
  -16.4828   14.7040  -29.8069 C   0  0  0  0  0  0  0  0  0  0  0  0
  -15.9892   13.4480  -30.2519 N   0  0  0  0  0  0  0  0  0  0  0  0
  -17.5848   15.2949  -30.4726 N   0  0  0  0  0  0  0  0  0  0  0  0
  -17.9086   16.6214  -30.4194 N   0  0  0  0  0  0  0  0  0  0  0  0
  -17.5227   17.5823  -31.1468 C   0  0  0  0  0  0  0  0  0  0  0  0
  -16.5829   17.4641  -32.2735 C   0  0  0  0  0  0  0  0  0  0  0  0
  -15.3313   18.0115  -32.1626 C   0  0  0  0  0  0  0  0  0  0  0  0
  -14.8700   18.8756  -30.6777 Cl  0  0  0  0  0  0  0  0  0  0  0  0
  -14.4249   17.9137  -33.1872 C   0  0  0  0  0  0  0  0  0  0  0  0
  -14.7528   17.2571  -34.3590 C   0  0  0  0  0  0  0  0  0  0  0  0
  -16.0109   16.7075  -34.4677 C   0  0  0  0  0  0  0  0  0  0  0  0
  -16.9270   16.8086  -33.4304 C   0  0  0  0  0  0  0  0  0  0  0  0
  -18.5342   16.0910  -33.6222 Cl  0  0  0  0  0  0  0  0  0  0  0  0
  2  3  2  0
  3  4  1  0
  3  5  1  0
  5  6  1  0
  6  7  2  3
  7  8  1  0
  8  9  2  0
  9 10  1  0
  9 11  1  0
 11 12  2  0
 12 13  1  0
 13 14  2  0
 14 15  1  0
 14  8  1  0
M  END
$$$$
