
     RDKit          3D

 19 20  0  0  0  0  0  0  0  0999 V2000
  -15.3931   14.6319  -30.8520 Cl  0  0  0  0  0  0  0  0  0  0  0  0
  -16.9698   13.6999  -29.7921 O   0  0  0  0  0  0  0  0  0  0  0  0
  -15.7523   13.9986  -30.0098 C   0  0  0  0  0  0  0  0  0  0  0  0
  -15.5151   15.0157  -30.9382 N   0  0  0  0  0  0  0  0  0  0  0  0
  -16.5615   15.7240  -31.6428 C   0  0  1  0  0  0  0  0  0  0  0  0
  -16.5324   17.2122  -31.3805 C   0  0  0  0  0  0  0  0  0  0  0  0
  -16.9556   17.9236  -32.5701 N   0  0  0  0  0  0  0  0  0  0  0  0
  -18.0964   17.3053  -33.2063 C   0  0  0  0  0  0  0  0  0  0  0  0
  -17.7983   15.9190  -33.7239 C   0  0  0  0  0  0  0  0  0  0  0  0
  -16.4379   15.5254  -33.1386 C   0  0  0  0  0  0  0  0  0  0  0  0
  -15.4368   16.5030  -33.7437 C   0  0  0  0  0  0  0  0  0  0  0  0
  -15.8360   17.9326  -33.4899 C   0  0  0  0  0  0  0  0  0  0  0  0
  -14.7520   13.2475  -29.2678 C   0  0  0  0  0  0  0  0  0  0  0  0
  -13.4234   13.5449  -29.4790 C   0  0  0  0  0  0  0  0  0  0  0  0
  -12.4197   12.8675  -28.8049 C   0  0  0  0  0  0  0  0  0  0  0  0
  -12.7608   11.8917  -27.9195 C   0  0  0  0  0  0  0  0  0  0  0  0
  -11.5379   11.0091  -27.0455 Cl  0  0  0  0  0  0  0  0  0  0  0  0
  -14.0825   11.5999  -27.7132 C   0  0  0  0  0  0  0  0  0  0  0  0
  -15.0982   12.2570  -28.3690 C   0  0  0  0  0  0  0  0  0  0  0  0
  2  3  2  0
  3  4  1  0
  5  4  1  1
  5  6  1  0
  6  7  1  0
  7  8  1  0
  8  9  1  0
  9 10  1  0
 10 11  1  0
 11 12  1  0
  3 13  1  0
 13 14  2  0
 14 15  1  0
 15 16  2  0
 16 17  1  0
 16 18  1  0
 18 19  2  0
 10  5  1  0
 19 13  1  0
 12  7  1  0
M  END
$$$$
