
     RDKit          3D

 16 17  0  0  0  0  0  0  0  0999 V2000
  -23.3675   23.7422  -39.1777 Cl  0  0  0  0  0  0  0  0  0  0  0  0
  -22.0791   22.3218  -42.9101 C   0  0  0  0  0  0  0  0  0  0  0  0
  -23.1014   21.8485  -42.1270 C   0  0  0  0  0  0  0  0  0  0  0  0
  -23.2621   22.2626  -40.8168 C   0  0  0  0  0  0  0  0  0  0  0  0
  -22.3667   23.1718  -40.3010 C   0  0  0  0  0  0  0  0  0  0  0  0
  -21.3340   23.6539  -41.0826 C   0  0  0  0  0  0  0  0  0  0  0  0
  -21.1770   23.2328  -42.4024 C   0  0  0  0  0  0  0  0  0  0  0  0
  -20.3271   24.6337  -40.6051 C   0  0  0  0  0  0  0  0  0  0  0  0
  -20.6226   25.2142  -39.2635 C   0  0  0  0  0  0  0  0  0  0  0  0
  -22.1087   25.1610  -38.9763 C   0  0  0  0  0  0  0  0  0  0  0  0
  -22.4573   23.6671  -38.9271 C   0  0  0  0  0  0  0  0  0  0  0  0
  -23.7728   23.5488  -38.3145 C   0  0  0  0  0  0  0  0  0  0  0  0
  -24.0041   22.8735  -37.2533 N   0  0  0  0  0  0  0  0  0  0  0  0
  -25.3680   22.9224  -36.8680 C   0  0  0  0  0  0  0  0  0  0  0  0
  -25.9865   23.9883  -37.7070 C   0  0  0  0  0  0  0  0  0  0  0  0
  -24.9772   24.1349  -38.7645 N   0  0  0  0  0  0  0  0  0  0  0  0
  2  3  2  0
  3  4  1  0
  4  5  2  0
  5  6  1  0
  6  7  2  0
  6  8  1  0
  8  9  1  0
  9 10  1  0
 10 11  1  0
 11 12  1  0
 12 13  2  0
 13 14  1  0
 14 15  1  0
 15 16  1  0
  7  2  1  0
 16 12  1  0
 11  5  1  0
M  END
$$$$
