
     RDKit          3D

 11 11  0  0  0  0  0  0  0  0999 V2000
  -19.4303   31.2332  -23.7181 O   0  0  0  0  0  0  0  0  0  0  0  0
  -19.1259   32.1431  -22.6220 B   0  0  0  0  0  0  0  0  0  0  0  0
  -19.3234   31.6657  -21.2640 O   0  0  0  0  0  0  0  0  0  0  0  0
  -18.4654   33.5403  -22.9511 C   0  0  0  0  0  0  0  0  0  0  0  0
  -19.0985   34.5973  -22.0704 C   0  0  0  0  0  0  0  0  0  0  0  0
  -18.4809   35.9339  -22.2962 C   0  0  0  0  0  0  0  0  0  0  0  0
  -19.1420   36.9388  -22.9792 C   0  0  0  0  0  0  0  0  0  0  0  0
  -18.5643   38.1732  -23.1843 C   0  0  0  0  0  0  0  0  0  0  0  0
  -17.3009   38.4608  -22.7172 C   0  0  0  0  0  0  0  0  0  0  0  0
  -16.6243   37.4733  -22.0338 C   0  0  0  0  0  0  0  0  0  0  0  0
  -17.2171   36.2427  -21.8370 C   0  0  0  0  0  0  0  0  0  0  0  0
  1  2  1  0
  2  3  1  0
  2  4  1  0
  4  5  1  0
  5  6  1  0
  6  7  2  0
  7  8  1  0
  8  9  2  0
  9 10  1  0
 10 11  2  0
 11  6  1  0
M  END
$$$$
