
     RDKit          3D

 32 31  0  0  0  0  0  0  0  0999 V2000
  -28.6028   21.7937  -28.9562 C   0  0  0  0  0  0  0  0  0  0  0  0
  -27.9016   22.2398  -27.7371 C   0  0  0  0  0  0  0  0  0  0  0  0
  -27.7608   21.3137  -26.6003 C   0  0  0  0  0  0  0  0  0  0  0  0
  -27.0289   20.0606  -26.7245 C   0  0  0  0  0  0  0  0  0  0  0  0
  -27.5334   18.7858  -27.7748 S   0  0  0  0  0  6  0  0  0  0  0  0
  -26.5226   17.6326  -27.5551 O   0  0  0  0  0  0  0  0  0  0  0  0
  -27.3944   19.0740  -29.2498 O   0  0  0  0  0  0  0  0  0  0  0  0
  -29.0542   18.1033  -27.4983 N   0  0  0  0  0  0  0  0  0  0  0  0
  -30.0321   18.2295  -28.5157 C   0  0  1  0  0  0  0  0  0  0  0  0
  -30.4600   16.8583  -29.0432 C   0  0  0  0  0  0  0  0  0  0  0  0
  -31.0422   16.0111  -27.9586 C   0  0  0  0  0  0  0  0  0  0  0  0
  -32.3909   16.0115  -27.6698 C   0  0  0  0  0  0  0  0  0  0  0  0
  -32.9323   15.2173  -26.6520 C   0  0  0  0  0  0  0  0  0  0  0  0
  -32.1211   14.4026  -25.9011 C   0  0  0  0  0  0  0  0  0  0  0  0
  -32.6714   13.6269  -24.9024 O   0  0  0  0  0  0  0  0  0  0  0  0
  -34.0658   13.6943  -24.6798 C   0  0  0  0  0  0  0  0  0  0  0  0
  -34.4492   12.7691  -23.5473 C   0  0  0  0  0  0  0  0  0  0  0  0
  -35.9284   12.7767  -23.2511 C   0  0  0  0  0  0  0  0  0  0  0  0
  -36.4152   14.1184  -22.8621 C   0  0  0  0  0  0  0  0  0  0  0  0
  -37.8844   14.2003  -22.5418 C   0  0  0  0  0  0  0  0  0  0  0  0
  -38.7751   13.8121  -23.6745 C   0  0  0  0  0  0  0  0  0  0  0  0
  -39.1735   12.3957  -23.7121 C   0  0  0  0  0  0  0  0  0  0  0  0
  -39.0009   11.5875  -22.5961 N   0  0  0  0  0  0  0  0  0  0  0  0
  -38.6982   12.1324  -21.3468 C   0  0  0  0  0  0  0  0  0  0  0  0
  -38.2862   13.5569  -21.2758 C   0  0  0  0  0  0  0  0  0  0  0  0
  -30.7698   14.4057  -26.1945 C   0  0  0  0  0  0  0  0  0  0  0  0
  -30.2331   15.1859  -27.1953 C   0  0  0  0  0  0  0  0  0  0  0  0
  -31.2394   18.9660  -28.0598 C   0  0  0  0  0  0  0  0  0  0  0  0
  -32.1969   19.1792  -28.8192 O   0  0  0  0  0  0  0  0  0  0  0  0
  -31.2712   19.4166  -26.7449 O   0  0  0  0  0  0  0  0  0  0  0  0
  -32.3340   16.5728  -25.8453 Cl  0  0  0  0  0  0  0  0  0  0  0  0
  -32.6015   15.9058  -25.5097 O   0  0  0  0  0  0  0  0  0  0  0  0
  1  2  1  0
  2  3  1  0
  3  4  1  0
  4  5  1  0
  5  6  2  0
  5  7  2  0
  5  8  1  0
  8  9  1  0
  9 10  1  1
 10 11  1  0
 11 12  2  0
 12 13  1  0
 13 14  2  0
 14 15  1  0
 15 16  1  0
 16 17  1  0
 17 18  1  0
 18 19  1  0
 19 20  1  0
 20 21  1  0
 21 22  1  0
 22 23  1  0
 23 24  1  0
 24 25  1  0
 14 26  1  0
 26 27  2  0
  9 28  1  0
 28 29  2  0
 28 30  1  0
 27 11  1  0
 25 20  1  0
M  END
$$$$
