
     RDKit          3D

 28 31  0  0  0  0  0  0  0  0999 V2000
  -21.5187   13.4048  -33.4381 C   0  0  0  0  0  0  0  0  0  0  0  0
  -21.7728   14.7531  -33.5370 O   0  0  0  0  0  0  0  0  0  0  0  0
  -20.8734   15.7203  -33.8641 C   0  0  0  0  0  0  0  0  0  0  0  0
  -19.4969   15.4098  -33.9203 C   0  0  0  0  0  0  0  0  0  0  0  0
  -18.5139   16.3314  -34.2308 C   0  0  0  0  0  0  0  0  0  0  0  0
  -17.0496   15.8946  -34.2420 C   0  0  0  0  0  0  0  0  0  0  0  0
  -16.4890   16.6680  -35.4340 C   0  0  0  0  0  0  0  0  0  0  0  0
  -16.8327   16.2737  -36.6653 C   0  0  0  0  0  0  0  0  0  0  0  0
  -17.1626   15.8598  -37.9254 N   0  0  0  0  0  0  0  0  0  0  0  0
  -15.6573   17.7130  -35.2626 C   0  0  0  0  0  0  0  0  0  0  0  0
  -15.2229   18.4060  -36.4586 N   0  0  0  0  0  0  0  0  0  0  0  0
  -15.1981   18.0892  -34.0569 O   0  0  0  0  0  0  0  0  0  0  0  0
  -15.5894   17.3222  -32.8604 C   0  0  0  0  0  0  0  0  0  0  0  0
  -15.0000   17.8342  -31.6993 C   0  0  0  0  0  0  0  0  0  0  0  0
  -15.3191   17.0890  -30.5330 C   0  0  0  0  0  0  0  0  0  0  0  0
  -16.1321   15.9715  -30.5832 C   0  0  0  0  0  0  0  0  0  0  0  0
  -16.6821   15.5533  -31.8023 C   0  0  0  0  0  0  0  0  0  0  0  0
  -16.3384   16.3433  -32.9999 C   0  0  0  0  0  0  0  0  0  0  0  0
  -16.2322   15.4663  -29.2762 O   0  0  0  0  0  0  0  0  0  0  0  0
  -15.2082   16.0817  -28.5074 C   0  0  0  0  0  0  0  0  0  0  0  0
  -14.9402   17.2618  -29.2094 O   0  0  0  0  0  0  0  0  0  0  0  0
  -18.9210   17.5987  -34.5013 C   0  0  0  0  0  0  0  0  0  0  0  0
  -20.2811   17.9723  -34.4748 C   0  0  0  0  0  0  0  0  0  0  0  0
  -20.6351   19.2641  -34.7723 O   0  0  0  0  0  0  0  0  0  0  0  0
  -19.6238   20.1420  -35.3551 C   0  0  0  0  0  0  0  0  0  0  0  0
  -21.2021   17.0189  -34.1554 C   0  0  0  0  0  0  0  0  0  0  0  0
  -22.5645   17.3337  -34.1122 O   0  0  0  0  0  0  0  0  0  0  0  0
  -23.4132   16.9590  -35.2065 C   0  0  0  0  0  0  0  0  0  0  0  0
  1  2  1  0
  2  3  1  0
  3  4  2  0
  4  5  1  0
  5  6  1  0
  6  7  1  0
  7  8  1  0
  8  9  3  0
  7 10  2  0
 10 11  1  0
 10 12  1  0
 12 13  1  0
 13 14  2  0
 14 15  1  0
 15 16  2  0
 16 17  1  0
 17 18  2  0
 16 19  1  0
 19 20  1  0
 20 21  1  0
  5 22  2  0
 22 23  1  0
 23 24  1  0
 24 25  1  0
 23 26  2  0
 26 27  1  0
 27 28  1  0
 26  3  1  0
 18  6  1  0
 18 13  1  0
 21 15  1  0
M  END
$$$$
