
     RDKit          3D

 34 37  0  0  0  0  0  0  0  0999 V2000
  -22.3956   44.5607  -20.3500 C   0  0  0  0  0  0  0  0  0  0  0  0
  -22.6891   45.0021  -21.7597 C   0  0  0  0  0  0  0  0  0  0  0  0
  -24.2020   45.0631  -21.9671 C   0  0  0  0  0  0  0  0  0  0  0  0
  -22.0943   46.2327  -21.9876 O   0  0  0  0  0  0  0  0  0  0  0  0
  -22.1438   43.9585  -22.7039 C   0  0  0  0  0  0  0  0  0  0  0  0
  -20.6415   44.1822  -22.8651 C   0  0  0  0  0  0  0  0  0  0  0  0
  -20.0812   43.2399  -23.9033 C   0  0  0  0  0  0  0  0  0  0  0  0
  -20.1935   44.0148  -25.1092 O   0  0  0  0  0  0  0  0  0  0  0  0
  -18.6003   42.9636  -23.7560 C   0  0  0  0  0  0  0  0  0  0  0  0
  -17.8458   44.2036  -23.8596 C   0  0  0  0  0  0  0  0  0  0  0  0
  -18.3447   42.2841  -25.0287 O   0  0  0  0  0  0  0  0  0  0  0  0
  -18.2865   41.9188  -22.7689 C   0  0  0  0  0  0  0  0  0  0  0  0
  -17.5739   42.3373  -21.5077 C   0  0  0  0  0  0  0  0  0  0  0  0
  -17.5179   41.0030  -20.7871 C   0  0  0  0  0  0  0  0  0  0  0  0
  -17.1312   40.0711  -21.8931 C   0  0  0  0  0  0  0  0  0  0  0  0
  -15.7367   39.8722  -21.7189 O   0  0  0  0  0  0  0  0  0  0  0  0
  -17.7629   38.7469  -21.7656 C   0  0  0  0  0  0  0  0  0  0  0  0
  -17.1607   37.8657  -20.9461 C   0  0  0  0  0  0  0  0  0  0  0  0
  -17.6813   36.5307  -20.7336 C   0  0  0  0  0  0  0  0  0  0  0  0
  -17.0333   35.7335  -20.0137 O   0  0  0  0  0  0  0  0  0  0  0  0
  -18.9779   36.1537  -21.3848 C   0  0  0  0  0  0  0  0  0  0  0  0
  -18.9380   34.6676  -21.5899 C   0  0  0  0  0  0  0  0  0  0  0  0
  -20.1584   34.2415  -22.3435 C   0  0  0  0  0  0  0  0  0  0  0  0
  -20.9173   33.3379  -21.5711 O   0  0  0  0  0  0  0  0  0  0  0  0
  -21.0600   35.3843  -22.6959 C   0  0  0  0  0  0  0  0  0  0  0  0
  -22.0237   34.8959  -23.6073 O   0  0  0  0  0  0  0  0  0  0  0  0
  -20.3533   36.5145  -23.3711 C   0  0  0  0  0  0  0  0  0  0  0  0
  -19.0293   36.8645  -22.7195 C   0  0  0  0  0  0  0  0  0  0  0  0
  -17.9000   36.3541  -23.5582 C   0  0  0  0  0  0  0  0  0  0  0  0
  -18.9817   38.3462  -22.4456 C   0  0  0  0  0  0  0  0  0  0  0  0
  -19.2847   39.1746  -23.6537 C   0  0  0  0  0  0  0  0  0  0  0  0
  -18.0948   39.9110  -24.1864 C   0  0  0  0  0  0  0  0  0  0  0  0
  -17.4177   40.7865  -23.1998 C   0  0  0  0  0  0  0  0  0  0  0  0
  -16.0685   41.1773  -23.7628 C   0  0  0  0  0  0  0  0  0  0  0  0
  1  2  1  0
  2  3  1  0
  2  4  1  0
  2  5  1  0
  5  6  1  0
  6  7  1  0
  7  8  1  0
  7  9  1  0
  9 10  1  0
  9 11  1  0
  9 12  1  0
 12 13  1  0
 13 14  1  0
 14 15  1  0
 15 16  1  0
 15 17  1  0
 17 18  2  0
 18 19  1  0
 19 20  2  0
 19 21  1  0
 21 22  1  0
 22 23  1  0
 23 24  1  0
 23 25  1  0
 25 26  1  0
 25 27  1  0
 27 28  1  0
 28 29  1  0
 28 30  1  0
 30 31  1  0
 31 32  1  0
 32 33  1  0
 33 34  1  0
 33 12  1  0
 33 15  1  0
 30 17  1  0
 28 21  1  0
M  END
$$$$
