
     RDKit          3D

 19 19  0  0  0  0  0  0  0  0999 V2000
  -23.1670   22.7054  -33.9114 C   0  0  0  0  0  0  0  0  0  0  0  0
  -22.2101   21.6861  -33.3384 C   0  0  0  0  0  0  0  0  0  0  0  0
  -21.2842   22.2450  -32.3171 C   0  0  0  0  0  0  0  0  0  0  0  0
  -22.9272   20.4233  -32.9303 C   0  0  2  0  0  0  0  0  0  0  0  0
  -22.9852   20.3918  -31.4614 N   0  0  0  0  0  0  0  0  0  0  0  0
  -22.2186   19.1800  -33.3256 C   0  0  0  0  0  0  0  0  0  0  0  0
  -22.3638   18.0766  -32.7080 O   0  0  0  0  0  0  0  0  0  0  0  0
  -21.3251   19.1456  -34.4308 N   0  0  0  0  0  0  0  0  0  0  0  0
  -20.6354   17.9050  -34.8200 C   0  0  1  0  0  0  0  0  0  0  0  0
  -20.9977   17.6679  -36.2552 C   0  0  0  0  0  0  0  0  0  0  0  0
  -22.2870   16.9825  -36.4554 C   0  0  0  0  0  0  0  0  0  0  0  0
  -22.4758   15.6379  -36.2130 C   0  0  0  0  0  0  0  0  0  0  0  0
  -23.7072   15.0292  -36.4116 C   0  0  0  0  0  0  0  0  0  0  0  0
  -24.7854   15.7456  -36.8580 C   0  0  0  0  0  0  0  0  0  0  0  0
  -24.6158   17.0916  -37.1058 C   0  0  0  0  0  0  0  0  0  0  0  0
  -23.3856   17.6865  -36.9044 C   0  0  0  0  0  0  0  0  0  0  0  0
  -19.1740   18.0405  -34.5922 C   0  0  0  0  0  0  0  0  0  0  0  0
  -18.5061   19.0147  -35.0190 O   0  0  0  0  0  0  0  0  0  0  0  0
  -18.4483   17.0765  -33.8790 O   0  0  0  0  0  0  0  0  0  0  0  0
  1  2  1  0
  2  3  1  0
  2  4  1  0
  4  5  1  1
  4  6  1  0
  6  7  2  0
  6  8  1  0
  8  9  1  0
  9 10  1  6
 10 11  1  0
 11 12  2  0
 12 13  1  0
 13 14  2  0
 14 15  1  0
 15 16  2  0
  9 17  1  0
 17 18  2  0
 17 19  1  0
 16 11  1  0
M  END
$$$$
