
     RDKit          3D

 24 25  0  0  0  0  0  0  0  0999 V2000
  -19.3078   47.1909  -23.5682 C   0  0  0  0  0  0  0  0  0  0  0  0
  -19.5649   45.7093  -23.6857 C   0  0  0  0  0  0  0  0  0  0  0  0
  -18.3032   44.9196  -23.9569 C   0  0  0  0  0  0  0  0  0  0  0  0
  -17.8037   45.1861  -25.3761 C   0  0  0  0  0  0  0  0  0  0  0  0
  -16.3830   44.7160  -25.4569 C   0  0  0  0  0  0  0  0  0  0  0  0
  -18.6044   43.4608  -23.8594 C   0  0  0  0  0  0  0  0  0  0  0  0
  -19.4844   42.9176  -24.5690 O   0  0  0  0  0  0  0  0  0  0  0  0
  -17.8778   42.6428  -22.9338 N   0  0  0  0  0  0  0  0  0  0  0  0
  -18.2518   41.2955  -22.7370 C   0  0  0  0  0  0  0  0  0  0  0  0
  -19.1055   40.2834  -23.9838 S   0  0  0  0  0  0  0  0  0  0  0  0
  -19.2089   38.8421  -23.0250 C   0  0  0  0  0  0  0  0  0  0  0  0
  -18.5878   39.2016  -21.8036 C   0  0  0  0  0  0  0  0  0  0  0  0
  -18.1242   40.4403  -21.7047 C   0  0  0  0  0  0  0  0  0  0  0  0
  -17.4790   40.9245  -20.4679 C   0  0  0  0  0  0  0  0  0  0  0  0
  -16.9637   41.3293  -19.4901 N   0  0  0  0  0  0  0  0  0  0  0  0
  -18.6006   38.0109  -20.8559 C   0  0  0  0  0  0  0  0  0  0  0  0
  -17.9350   36.8282  -21.5407 C   0  0  0  0  0  0  0  0  0  0  0  0
  -18.6671   36.4366  -22.7535 C   0  0  0  0  0  0  0  0  0  0  0  0
  -19.1513   35.0356  -22.8739 C   0  0  0  0  0  0  0  0  0  0  0  0
  -20.3792   34.9520  -21.9387 C   0  0  0  0  0  0  0  0  0  0  0  0
  -19.7034   34.8384  -24.2708 C   0  0  0  0  0  0  0  0  0  0  0  0
  -18.2527   33.9496  -22.4373 C   0  0  0  0  0  0  0  0  0  0  0  0
  -17.1712   34.2556  -21.4749 C   0  0  0  0  0  0  0  0  0  0  0  0
  -19.7553   37.4394  -23.1620 C   0  0  0  0  0  0  0  0  0  0  0  0
  1  2  1  0
  2  3  1  0
  3  4  1  0
  4  5  1  0
  3  6  1  0
  6  7  2  0
  6  8  1  0
  8  9  1  0
  9 10  1  0
 10 11  1  0
 11 12  2  0
 12 13  1  0
 13 14  1  0
 14 15  3  0
 12 16  1  0
 16 17  1  0
 17 18  1  0
 18 19  1  0
 19 20  1  0
 19 21  1  0
 19 22  1  0
 22 23  1  0
 18 24  1  0
 13  9  2  0
 24 11  1  0
M  END
$$$$
