
     RDKit          3D

 46 49  0  0  0  0  0  0  0  0999 V2000
  -16.4662   17.2376  -34.6715 C   0  0  0  0  0  0  0  0  0  0  0  0
  -15.1833   16.8771  -35.3086 C   0  0  0  0  0  0  0  0  0  0  0  0
  -14.1725   16.3496  -34.5073 C   0  0  0  0  0  0  0  0  0  0  0  0
  -12.9679   16.0065  -35.0768 C   0  0  0  0  0  0  0  0  0  0  0  0
  -12.7987   16.1973  -36.4299 C   0  0  0  0  0  0  0  0  0  0  0  0
  -13.7871   16.7154  -37.2221 C   0  0  0  0  0  0  0  0  0  0  0  0
  -13.5627   16.9099  -38.6893 C   0  0  0  0  0  0  0  0  0  0  0  0
  -14.9964   17.0613  -36.6607 C   0  0  0  0  0  0  0  0  0  0  0  0
  -16.0566   17.5916  -37.3805 O   0  0  0  0  0  0  0  0  0  0  0  0
  -16.8997   16.7967  -38.1749 C   0  0  0  0  0  0  0  0  0  0  0  0
  -17.9895   17.5629  -38.7979 C   0  0  0  0  0  0  0  0  0  0  0  0
  -18.3566   17.3655  -39.9892 O   0  0  0  0  0  0  0  0  0  0  0  0
  -18.7074   18.5824  -38.0991 N   0  0  0  0  0  0  0  0  0  0  0  0
  -20.0424   18.9861  -38.5233 C   0  0  1  0  0  0  0  0  0  0  0  0
  -20.9116   18.8962  -37.2789 C   0  0  0  0  0  0  0  0  0  0  0  0
  -21.0453   17.5211  -36.7677 C   0  0  0  0  0  0  0  0  0  0  0  0
  -21.4665   17.2988  -35.4822 C   0  0  0  0  0  0  0  0  0  0  0  0
  -21.5896   15.9901  -35.0092 C   0  0  0  0  0  0  0  0  0  0  0  0
  -21.2959   14.9182  -35.8103 C   0  0  0  0  0  0  0  0  0  0  0  0
  -20.8760   15.1197  -37.0901 C   0  0  0  0  0  0  0  0  0  0  0  0
  -20.7554   16.4077  -37.5541 C   0  0  0  0  0  0  0  0  0  0  0  0
  -19.9600   20.3549  -39.1062 C   0  0  1  0  0  0  0  0  0  0  0  0
  -18.9490   21.0416  -38.4214 O   0  0  0  0  0  0  0  0  0  0  0  0
  -19.4944   20.3172  -40.5641 C   0  0  0  0  0  0  0  0  0  0  0  0
  -18.9314   21.6722  -40.9438 C   0  0  2  0  0  0  0  0  0  0  0  0
  -20.0263   22.7170  -40.8473 C   0  0  0  0  0  0  0  0  0  0  0  0
  -20.9678   22.6312  -41.9887 C   0  0  0  0  0  0  0  0  0  0  0  0
  -22.0573   23.4789  -42.1131 C   0  0  0  0  0  0  0  0  0  0  0  0
  -22.9316   23.4093  -43.1570 C   0  0  0  0  0  0  0  0  0  0  0  0
  -22.7597   22.4727  -44.1482 C   0  0  0  0  0  0  0  0  0  0  0  0
  -21.6954   21.6175  -44.0608 C   0  0  0  0  0  0  0  0  0  0  0  0
  -20.8274   21.7014  -43.0054 C   0  0  0  0  0  0  0  0  0  0  0  0
  -18.3388   21.6580  -42.2523 N   0  0  0  0  0  0  0  0  0  0  0  0
  -17.1050   20.9995  -42.5047 C   0  0  0  0  0  0  0  0  0  0  0  0
  -16.4190   20.5053  -41.5497 O   0  0  0  0  0  0  0  0  0  0  0  0
  -16.5229   20.8327  -43.8615 C   0  0  2  0  0  0  0  0  0  0  0  0
  -15.2514   21.6039  -43.9569 C   0  0  0  0  0  0  0  0  0  0  0  0
  -14.3452   21.0841  -45.0680 C   0  0  0  0  0  0  0  0  0  0  0  0
  -15.4117   23.0980  -43.9828 C   0  0  0  0  0  0  0  0  0  0  0  0
  -17.4301   20.9217  -44.9379 N   0  0  0  0  0  0  0  0  0  0  0  0
  -17.8763   22.2248  -45.4855 C   0  0  0  0  0  0  0  0  0  0  0  0
  -19.3592   22.2542  -45.6431 C   0  0  0  0  0  0  0  0  0  0  0  0
  -19.9819   21.0785  -46.3022 C   0  0  0  0  0  0  0  0  0  0  0  0
  -19.0092   20.0634  -46.5861 N   0  0  0  0  0  0  0  0  0  0  0  0
  -18.0010   19.7799  -45.6045 C   0  0  0  0  0  0  0  0  0  0  0  0
  -17.6245   18.6377  -45.3268 O   0  0  0  0  0  0  0  0  0  0  0  0
  1  2  1  0
  2  3  2  0
  3  4  1  0
  4  5  2  0
  5  6  1  0
  6  7  1  0
  6  8  2  0
  8  9  1  0
  9 10  1  0
 10 11  1  0
 11 12  2  0
 11 13  1  0
 13 14  1  0
 14 15  1  1
 15 16  1  0
 16 17  2  0
 17 18  1  0
 18 19  2  0
 19 20  1  0
 20 21  2  0
 14 22  1  0
 22 23  1  1
 22 24  1  0
 25 24  1  6
 25 26  1  0
 26 27  1  0
 27 28  2  0
 28 29  1  0
 29 30  2  0
 30 31  1  0
 31 32  2  0
 25 33  1  0
 33 34  1  0
 34 35  2  0
 34 36  1  0
 36 37  1  6
 37 38  1  0
 37 39  1  0
 36 40  1  0
 40 41  1  0
 41 42  1  0
 42 43  1  0
 43 44  1  0
 44 45  1  0
 45 46  2  0
  8  2  1  0
 21 16  1  0
 32 27  1  0
 45 40  1  0
M  END
$$$$
