
     RDKit          3D

 24 25  0  0  0  0  0  0  0  0999 V2000
  -19.7032   45.3213  -22.6982 O   0  0  0  0  0  0  0  0  0  0  0  0
  -19.2939   44.2722  -23.3138 C   0  0  0  0  0  0  0  0  0  0  0  0
  -19.1786   44.4107  -24.6614 O   0  0  0  0  0  0  0  0  0  0  0  0
  -18.9896   43.0556  -22.5518 C   0  0  0  0  0  0  0  0  0  0  0  0
  -19.1847   41.8382  -23.2177 C   0  0  0  0  0  0  0  0  0  0  0  0
  -18.9964   40.6451  -22.6024 C   0  0  0  0  0  0  0  0  0  0  0  0
  -19.1327   39.4287  -23.0831 O   0  0  0  0  0  0  0  0  0  0  0  0
  -19.0424   38.1429  -22.7531 C   0  0  0  0  0  0  0  0  0  0  0  0
  -20.0591   37.2850  -22.3972 C   0  0  0  0  0  0  0  0  0  0  0  0
  -19.8512   35.9513  -22.0642 C   0  0  0  0  0  0  0  0  0  0  0  0
  -18.5987   35.3964  -22.0702 C   0  0  0  0  0  0  0  0  0  0  0  0
  -18.3675   33.9755  -21.7152 C   0  0  0  0  0  0  0  0  0  0  0  0
  -19.2737   33.5128  -20.7784 F   0  0  0  0  0  0  0  0  0  0  0  0
  -18.5180   33.1477  -22.8324 F   0  0  0  0  0  0  0  0  0  0  0  0
  -17.0727   33.7943  -21.2773 F   0  0  0  0  0  0  0  0  0  0  0  0
  -17.5675   36.2377  -22.4243 C   0  0  0  0  0  0  0  0  0  0  0  0
  -17.7447   37.5437  -22.7533 C   0  0  0  0  0  0  0  0  0  0  0  0
  -16.4014   38.5657  -23.1928 Cl  0  0  0  0  0  0  0  0  0  0  0  0
  -18.5911   40.7098  -21.2405 C   0  0  0  0  0  0  0  0  0  0  0  0
  -18.4051   41.8771  -20.6074 C   0  0  0  0  0  0  0  0  0  0  0  0
  -18.6005   43.1171  -21.2542 C   0  0  0  0  0  0  0  0  0  0  0  0
  -18.3672   44.2803  -20.4847 N   0  0  0  0  0  4  0  0  0  0  0  0
  -18.1714   44.1026  -19.2408 O   0  0  0  0  0  0  0  0  0  0  0  0
  -18.3378   45.5313  -20.9202 O   0  0  0  0  0  1  0  0  0  0  0  0
  1  2  2  0
  2  3  1  0
  2  4  1  0
  4  5  2  0
  5  6  1  0
  6  7  1  0
  7  8  1  0
  8  9  2  0
  9 10  1  0
 10 11  2  0
 11 12  1  0
 12 13  1  0
 12 14  1  0
 12 15  1  0
 11 16  1  0
 16 17  2  0
 17 18  1  0
  6 19  2  0
 19 20  1  0
 20 21  2  0
 21 22  1  0
 22 23  2  0
 22 24  1  0
 21  4  1  0
 17  8  1  0
M  CHG  2  22   1  24  -1
M  END
$$$$
