
     RDKit          3D

 16 17  0  0  0  0  0  0  0  0999 V2000
  -19.7690   34.1032  -22.4308 C   0  0  0  0  0  0  0  0  0  0  0  0
  -18.5103   34.5041  -21.7329 C   0  0  0  0  0  0  0  0  0  0  0  0
  -18.0940   35.8888  -22.1491 C   0  0  0  0  0  0  0  0  0  0  0  0
  -17.2351   36.4565  -22.7336 N   0  0  0  0  0  0  0  0  0  0  0  0
  -17.1672   37.7379  -22.9279 N   0  0  0  0  0  0  0  0  0  0  0  0
  -17.9955   38.5095  -22.5223 C   0  0  0  0  0  0  0  0  0  0  0  0
  -18.2032   39.9278  -22.5674 N   0  0  0  0  0  0  0  0  0  0  0  0
  -18.4054   40.6699  -21.3763 C   0  0  0  0  0  0  0  0  0  0  0  0
  -18.6786   40.0066  -20.3313 O   0  0  0  0  0  0  0  0  0  0  0  0
  -18.3109   42.1408  -21.3170 C   0  0  0  0  0  0  0  0  0  0  0  0
  -18.7168   42.7837  -20.1672 C   0  0  0  0  0  0  0  0  0  0  0  0
  -18.6318   44.1591  -20.1034 C   0  0  0  0  0  0  0  0  0  0  0  0
  -18.1542   44.9189  -21.1505 C   0  0  0  0  0  0  0  0  0  0  0  0
  -17.7663   44.2638  -22.2577 N   0  0  0  0  0  0  0  0  0  0  0  0
  -17.8380   42.9127  -22.3501 C   0  0  0  0  0  0  0  0  0  0  0  0
  -19.1762   37.3633  -21.6750 S   0  0  0  0  0  0  0  0  0  0  0  0
  1  2  1  0
  2  3  1  0
  3  4  2  0
  4  5  1  0
  5  6  2  0
  6  7  1  0
  7  8  1  0
  8  9  2  0
  8 10  1  0
 10 11  2  0
 11 12  1  0
 12 13  2  0
 13 14  1  0
 14 15  2  0
  6 16  1  0
 16  3  1  0
 15 10  1  0
M  END
$$$$
