
     RDKit          3D

 32 36  0  0  0  0  0  0  0  0999 V2000
  -22.8077   20.9760  -38.9359 C   0  0  0  0  0  0  0  0  0  0  0  0
  -23.0498   22.4306  -38.7549 C   0  0  0  0  0  0  0  0  0  0  0  0
  -23.9536   22.8595  -37.8241 C   0  0  0  0  0  0  0  0  0  0  0  0
  -24.2361   24.1943  -37.5966 C   0  0  0  0  0  0  0  0  0  0  0  0
  -23.5333   25.0858  -38.3855 C   0  0  0  0  0  0  0  0  0  0  0  0
  -22.6200   24.6846  -39.3276 C   0  0  0  0  0  0  0  0  0  0  0  0
  -22.3680   23.3459  -39.5224 C   0  0  0  0  0  0  0  0  0  0  0  0
  -21.4131   22.9051  -40.5013 N   0  0  0  0  0  0  0  0  0  0  0  0
  -21.7275   22.6943  -41.8619 C   0  0  0  0  0  0  0  0  0  0  0  0
  -22.8997   22.8945  -42.2484 O   0  0  0  0  0  0  0  0  0  0  0  0
  -20.7254   22.2459  -42.8490 C   0  0  0  0  0  0  0  0  0  0  0  0
  -21.0673   22.0352  -44.1628 C   0  0  0  0  0  0  0  0  0  0  0  0
  -20.1246   21.6070  -45.0424 C   0  0  0  0  0  0  0  0  0  0  0  0
  -18.8311   21.3885  -44.6075 C   0  0  0  0  0  0  0  0  0  0  0  0
  -18.4418   21.5880  -43.3041 C   0  0  0  0  0  0  0  0  0  0  0  0
  -17.1625   21.3542  -42.9054 C   0  0  0  0  0  0  0  0  0  0  0  0
  -16.0820   20.9987  -43.8347 C   0  0  0  0  0  0  0  0  0  0  0  0
  -15.2478   19.8295  -43.4414 C   0  0  0  0  0  0  0  0  0  0  0  0
  -14.0911   19.4271  -44.2464 C   0  0  0  0  0  0  0  0  0  0  0  0
  -13.2878   18.4217  -43.7679 O   0  0  0  0  0  0  0  0  0  0  0  0
  -16.8226   21.5548  -41.5546 C   0  0  0  0  0  0  0  0  0  0  0  0
  -17.7852   21.9815  -40.6829 C   0  0  0  0  0  0  0  0  0  0  0  0
  -19.0743   22.2194  -41.0889 C   0  0  0  0  0  0  0  0  0  0  0  0
  -19.4310   22.0288  -42.4062 C   0  0  0  0  0  0  0  0  0  0  0  0
  -20.0764   22.6694  -40.0938 C   0  0  0  0  0  0  0  0  0  0  0  0
  -19.7088   22.8303  -38.9082 O   0  0  0  0  0  0  0  0  0  0  0  0
  -23.9835   26.3080  -37.9733 N   0  0  0  0  0  0  0  0  0  0  0  0
  -23.5178   27.5732  -38.5301 C   0  0  0  0  0  0  0  0  0  0  0  0
  -24.8995   26.1488  -36.9971 C   0  0  0  0  0  0  0  0  0  0  0  0
  -25.4993   27.0788  -36.4116 O   0  0  0  0  0  0  0  0  0  0  0  0
  -25.0673   24.8464  -36.7523 N   0  0  0  0  0  0  0  0  0  0  0  0
  -25.9435   24.1825  -35.7913 C   0  0  0  0  0  0  0  0  0  0  0  0
  1  2  1  0
  2  3  2  0
  3  4  1  0
  4  5  2  0
  5  6  1  0
  6  7  2  0
  7  8  1  0
  8  9  1  0
  9 10  2  0
  9 11  1  0
 11 12  2  0
 12 13  1  0
 13 14  2  0
 14 15  1  0
 15 16  2  0
 16 17  1  0
 17 18  1  0
 18 19  1  0
 19 20  1  0
 16 21  1  0
 21 22  2  0
 22 23  1  0
 23 24  2  0
 23 25  1  0
 25 26  2  0
  5 27  1  0
 27 28  1  0
 27 29  1  0
 29 30  2  0
 29 31  1  0
 31 32  1  0
  7  2  1  0
 25  8  1  0
 31  4  1  0
 24 11  1  0
 24 15  1  0
M  END
$$$$
