
     RDKit          3D

 35 38  0  0  0  0  0  0  0  0999 V2000
  -22.8820   24.5118  -30.6471 C   0  0  0  0  0  0  0  0  0  0  0  0
  -22.6263   25.3335  -31.7484 O   0  0  0  0  0  0  0  0  0  0  0  0
  -23.2361   24.7668  -32.8708 C   0  0  0  0  0  0  0  0  0  0  0  0
  -23.9623   23.5312  -32.4730 C   0  0  0  0  0  0  0  0  0  0  0  0
  -23.6241   22.4363  -32.9939 O   0  0  0  0  0  0  0  0  0  0  0  0
  -25.0120   23.6063  -31.5246 N   0  0  0  0  0  0  0  0  0  0  0  0
  -26.1422   22.7343  -31.5610 C   0  0  0  0  0  0  0  0  0  0  0  0
  -25.8872   21.4477  -30.8496 C   0  0  0  0  0  0  0  0  0  0  0  0
  -26.6753   20.4082  -30.9472 C   0  0  0  0  0  0  0  0  0  0  0  0
  -26.6259   19.2390  -30.0834 C   0  0  0  0  0  0  0  0  0  0  0  0
  -25.5587   18.3714  -30.0547 C   0  0  0  0  0  0  0  0  0  0  0  0
  -25.5201   17.2658  -29.2330 C   0  0  0  0  0  0  0  0  0  0  0  0
  -26.6047   17.0379  -28.4143 C   0  0  0  0  0  0  0  0  0  0  0  0
  -26.6332   15.9881  -27.5964 N   0  0  0  0  0  0  0  0  0  0  0  0
  -27.6812   15.7476  -26.7906 C   0  0  0  0  0  0  0  0  0  0  0  0
  -28.7309   16.5861  -26.8069 N   0  0  0  0  0  0  0  0  0  0  0  0
  -28.8006   17.6830  -27.6024 C   0  0  0  0  0  0  0  0  0  0  0  0
  -29.9184   18.5371  -27.5884 N   0  0  0  0  0  0  0  0  0  0  0  0
  -31.0316   18.2073  -26.7563 C   0  0  0  0  0  0  0  0  0  0  0  0
  -31.2518   18.8715  -25.5617 C   0  0  0  0  0  0  0  0  0  0  0  0
  -32.3486   18.5383  -24.8049 C   0  0  0  0  0  0  0  0  0  0  0  0
  -33.2457   17.5519  -25.2038 C   0  0  0  0  0  0  0  0  0  0  0  0
  -34.3420   17.2080  -24.4637 O   0  0  0  0  0  0  0  0  0  0  0  0
  -34.4999   16.1595  -23.6088 C   0  0  0  0  0  0  0  0  0  0  0  0
  -33.6437   16.0718  -22.5266 C   0  0  0  0  0  0  0  0  0  0  0  0
  -33.7880   15.0065  -21.6406 C   0  0  0  0  0  0  0  0  0  0  0  0
  -34.7587   14.0595  -21.8328 C   0  0  0  0  0  0  0  0  0  0  0  0
  -34.9069   12.9136  -20.8715 C   0  0  0  0  0  0  0  0  0  0  0  0
  -35.5798   14.1594  -22.8865 N   0  0  0  0  0  0  0  0  0  0  0  0
  -35.4541   15.1899  -23.7597 C   0  0  0  0  0  0  0  0  0  0  0  0
  -33.0059   16.9088  -26.3919 C   0  0  0  0  0  0  0  0  0  0  0  0
  -33.9209   15.8355  -26.9234 C   0  0  0  0  0  0  0  0  0  0  0  0
  -31.9008   17.2394  -27.1622 C   0  0  0  0  0  0  0  0  0  0  0  0
  -27.7047   17.9062  -28.4239 C   0  0  0  0  0  0  0  0  0  0  0  0
  -27.7080   18.9972  -29.2556 C   0  0  0  0  0  0  0  0  0  0  0  0
  1  2  1  0
  2  3  1  0
  3  4  1  0
  4  5  2  0
  4  6  1  0
  6  7  1  0
  7  8  1  0
  8  9  2  0
  9 10  1  0
 10 11  2  0
 11 12  1  0
 12 13  2  0
 13 14  1  0
 14 15  2  0
 15 16  1  0
 16 17  2  0
 17 18  1  0
 18 19  1  0
 19 20  2  0
 20 21  1  0
 21 22  2  0
 22 23  1  0
 23 24  1  0
 24 25  2  0
 25 26  1  0
 26 27  2  0
 27 28  1  0
 27 29  1  0
 29 30  2  0
 22 31  1  0
 31 32  1  0
 31 33  2  0
 17 34  1  0
 34 35  2  0
 35 10  1  0
 34 13  1  0
 33 19  1  0
 30 24  1  0
M  END
$$$$
