
     RDKit          3D

 27 29  0  0  0  0  0  0  0  0999 V2000
  -31.4075   12.4427  -23.2958 C   0  0  0  0  0  0  0  0  0  0  0  0
  -31.4188   13.2862  -24.1067 C   0  0  0  0  0  0  0  0  0  0  0  0
  -31.4176   14.3376  -25.0959 C   0  0  0  0  0  0  0  0  0  0  0  0
  -30.2960   15.1487  -24.8723 O   0  0  0  0  0  0  0  0  0  0  0  0
  -30.0525   16.3412  -25.5060 C   0  0  0  0  0  0  0  0  0  0  0  0
  -30.7691   17.3928  -25.9525 C   0  0  0  0  0  0  0  0  0  0  0  0
  -30.1209   18.5332  -26.5447 C   0  0  0  0  0  0  0  0  0  0  0  0
  -28.7402   18.5764  -26.6791 C   0  0  0  0  0  0  0  0  0  0  0  0
  -27.9699   17.4957  -26.2446 C   0  0  0  0  0  0  0  0  0  0  0  0
  -28.6436   16.4957  -25.7135 C   0  0  0  0  0  0  0  0  0  0  0  0
  -26.5982   17.5122  -26.3665 C   0  0  0  0  0  0  0  0  0  0  0  0
  -25.9465   16.2473  -26.1430 C   0  0  0  0  0  0  0  0  0  0  0  0
  -25.0929   16.2269  -25.0433 C   0  0  0  0  0  0  0  0  0  0  0  0
  -24.4489   15.0909  -24.6893 C   0  0  0  0  0  0  0  0  0  0  0  0
  -24.5657   13.8808  -25.3520 C   0  0  0  0  0  0  0  0  0  0  0  0
  -23.8568   12.6514  -24.9273 C   0  0  0  0  0  0  0  0  0  0  0  0
  -24.5078   11.3783  -25.4334 C   0  0  0  0  0  0  0  0  0  0  0  0
  -23.9129   12.6598  -23.3959 C   0  0  0  0  0  0  0  0  0  0  0  0
  -25.4056   13.9215  -26.4513 C   0  0  0  0  0  0  0  0  0  0  0  0
  -26.0952   15.1025  -26.8412 C   0  0  0  0  0  0  0  0  0  0  0  0
  -25.9797   18.5922  -26.8798 N   0  0  0  0  0  0  0  0  0  0  0  0
  -26.7325   19.6058  -27.2650 C   0  0  0  0  0  0  0  0  0  0  0  0
  -26.2205   20.6503  -27.7568 O   0  0  0  0  0  0  0  0  0  0  0  0
  -28.0813   19.6252  -27.1837 N   0  0  0  0  0  0  0  0  0  0  0  0
  -28.8556   20.7367  -27.7502 C   0  0  0  0  0  0  0  0  0  0  0  0
  -29.5957   21.5267  -26.7079 C   0  0  0  0  0  0  0  0  0  0  0  0
  -29.6136   20.3863  -28.9861 C   0  0  0  0  0  0  0  0  0  0  0  0
  1  2  3  0
  2  3  1  0
  3  4  1  0
  4  5  1  0
  5  6  2  0
  6  7  1  0
  7  8  2  0
  8  9  1  0
  9 10  2  0
  9 11  1  0
 11 12  1  0
 12 13  2  0
 13 14  1  0
 14 15  2  0
 15 16  1  0
 16 17  1  0
 16 18  1  0
 15 19  1  0
 19 20  2  0
 11 21  2  0
 21 22  1  0
 22 23  2  0
 22 24  1  0
 24 25  1  0
 25 26  1  0
 25 27  1  0
 10  5  1  0
 20 12  1  0
 24  8  1  0
M  END
$$$$
