
     RDKit          3D

  6  6  0  0  0  0  0  0  0  0999 V2000
  -17.2272   33.4496  -22.6303 C   0  0  0  0  0  0  0  0  0  0  0  0
  -18.6060   33.6380  -22.2527 N   0  0  0  0  0  0  0  0  0  0  0  0
  -19.4728   32.6350  -22.0182 C   0  0  0  0  0  0  0  0  0  0  0  0
  -20.6639   33.2483  -21.6908 C   0  0  0  0  0  0  0  0  0  0  0  0
  -20.4946   34.5897  -21.7336 N   0  0  0  0  0  0  0  0  0  0  0  0
  -19.2346   34.8172  -22.0777 C   0  0  0  0  0  0  0  0  0  0  0  0
  1  2  1  0
  2  3  1  0
  3  4  2  0
  4  5  1  0
  5  6  2  0
  6  2  1  0
M  END
$$$$
