
     RDKit          3D

 22 24  0  0  0  0  0  0  0  0999 V2000
  -27.1154   19.3258  -27.7455 O   0  0  0  0  0  0  0  0  0  0  0  0
  -28.3451   19.2509  -27.3740 C   0  0  0  0  0  0  0  0  0  0  0  0
  -29.2582   20.1576  -27.9556 N   0  0  0  0  0  0  0  0  0  0  0  0
  -28.7495   21.1284  -28.9322 C   0  0  0  0  0  0  0  0  0  0  0  0
  -29.0372   22.0131  -29.6031 N   0  0  0  0  0  0  0  0  0  0  0  0
  -28.3100   22.7378  -30.4336 C   0  0  0  0  0  0  0  0  0  0  0  0
  -28.6757   23.8247  -31.2542 C   0  0  0  0  0  0  0  0  0  0  0  0
  -27.7664   24.4512  -32.0540 C   0  0  0  0  0  0  0  0  0  0  0  0
  -26.4463   24.0828  -32.1248 C   0  0  0  0  0  0  0  0  0  0  0  0
  -26.0763   23.0038  -31.3122 C   0  0  0  0  0  0  0  0  0  0  0  0
  -26.9907   22.3920  -30.5234 C   0  0  0  0  0  0  0  0  0  0  0  0
  -26.9091   20.9934  -29.3539 S   0  0  0  0  0  0  0  0  0  0  0  0
  -28.7737   18.2815  -26.4040 C   0  0  0  0  0  0  0  0  0  0  0  0
  -28.0806   18.1653  -25.1997 C   0  0  0  0  0  0  0  0  0  0  0  0
  -28.4446   17.2575  -24.2368 C   0  0  0  0  0  0  0  0  0  0  0  0
  -29.5441   16.4330  -24.4862 C   0  0  0  0  0  0  0  0  0  0  0  0
  -30.2376   16.5334  -25.6652 C   0  0  0  0  0  0  0  0  0  0  0  0
  -31.3980   15.6429  -25.8949 C   0  0  0  0  0  0  0  0  0  0  0  0
  -30.8606   14.1696  -26.7540 Cl  0  0  0  0  0  0  0  0  0  0  0  0
  -32.1631   15.2208  -24.3582 Cl  0  0  0  0  0  0  0  0  0  0  0  0
  -32.5275   16.5245  -26.9608 Cl  0  0  0  0  0  0  0  0  0  0  0  0
  -29.8331   17.4693  -26.6150 C   0  0  0  0  0  0  0  0  0  0  0  0
  1  2  2  0
  2  3  1  0
  3  4  1  0
  4  5  2  0
  5  6  1  0
  6  7  2  0
  7  8  1  0
  8  9  2  0
  9 10  1  0
 10 11  2  0
 11 12  1  0
  2 13  1  0
 13 14  2  0
 14 15  1  0
 15 16  2  0
 16 17  1  0
 17 18  1  0
 18 19  1  0
 18 20  1  0
 18 21  1  0
 17 22  2  0
 12  4  1  0
 22 13  1  0
 11  6  1  0
M  END
$$$$
