
     RDKit          3D

 24 27  0  0  0  0  0  0  0  0999 V2000
  -28.6487   13.4308  -30.0009 N   0  0  0  0  0  0  0  0  0  0  0  0
  -28.6138   13.9808  -28.7063 C   0  0  0  0  0  0  0  0  0  0  0  0
  -28.5170   13.2260  -27.5568 C   0  0  0  0  0  0  0  0  0  0  0  0
  -28.4902   13.8614  -26.3337 C   0  0  0  0  0  0  0  0  0  0  0  0
  -28.5568   15.2331  -26.2109 C   0  0  0  0  0  0  0  0  0  0  0  0
  -28.6539   15.9931  -27.3590 C   0  0  0  0  0  0  0  0  0  0  0  0
  -28.7291   17.4513  -27.3190 C   0  0  0  0  0  0  0  0  0  0  0  0
  -28.3673   18.3368  -28.3159 C   0  0  0  0  0  0  0  0  0  0  0  0
  -28.5820   19.6302  -27.9098 C   0  0  0  0  0  0  0  0  0  0  0  0
  -28.4072   20.9020  -28.4774 C   0  0  0  0  0  0  0  0  0  0  0  0
  -27.9088   20.9376  -29.7297 O   0  0  0  0  0  0  0  0  0  0  0  0
  -27.6648   21.9696  -30.5988 C   0  0  0  0  0  0  0  0  0  0  0  0
  -28.7246   22.4363  -31.3871 C   0  0  0  0  0  0  0  0  0  0  0  0
  -28.5412   23.4579  -32.2671 C   0  0  0  0  0  0  0  0  0  0  0  0
  -27.3167   24.0717  -32.4195 C   0  0  0  0  0  0  0  0  0  0  0  0
  -26.2563   23.6413  -31.6646 C   0  0  0  0  0  0  0  0  0  0  0  0
  -24.9923   24.2352  -31.7853 O   0  0  0  0  0  0  0  0  0  0  0  0
  -26.4510   22.5924  -30.7631 C   0  0  0  0  0  0  0  0  0  0  0  0
  -28.7245   22.0033  -27.7947 N   0  0  0  0  0  0  0  0  0  0  0  0
  -29.2160   21.8861  -26.5515 C   0  0  0  0  0  0  0  0  0  0  0  0
  -29.3897   20.6756  -25.9928 N   0  0  0  0  0  0  0  0  0  0  0  0
  -29.0880   19.5308  -26.6320 C   0  0  0  0  0  0  0  0  0  0  0  0
  -29.1669   18.2076  -26.2993 N   0  0  0  0  0  0  0  0  0  0  0  0
  -28.6796   15.3437  -28.5756 C   0  0  0  0  0  0  0  0  0  0  0  0
  1  2  1  0
  2  3  2  0
  3  4  1  0
  4  5  2  0
  5  6  1  0
  6  7  1  0
  7  8  2  0
  8  9  1  0
  9 10  2  0
 10 11  1  0
 11 12  1  0
 12 13  2  0
 13 14  1  0
 14 15  2  0
 15 16  1  0
 16 17  1  0
 16 18  2  0
 10 19  1  0
 19 20  2  0
 20 21  1  0
 21 22  2  0
 22 23  1  0
  6 24  2  0
 24  2  1  0
 23  7  1  0
 22  9  1  0
 18 12  1  0
M  END
$$$$
