
     RDKit          3D

 44 50  0  0  0  0  0  0  0  0999 V2000
  -28.5156   23.4739  -30.9387 O   0  0  0  0  0  0  0  0  0  0  0  0
  -28.1625   22.3006  -30.7237 C   0  0  0  0  0  0  0  0  0  0  0  0
  -27.0075   21.7723  -31.2943 N   0  0  0  0  0  0  0  0  0  0  0  0
  -25.7462   22.4096  -31.4099 C   0  0  0  0  0  0  0  0  0  0  0  0
  -24.7064   21.9974  -30.5530 C   0  0  0  0  0  0  0  0  0  0  0  0
  -23.4558   22.5472  -30.5678 C   0  0  0  0  0  0  0  0  0  0  0  0
  -23.2072   23.5587  -31.4714 C   0  0  0  0  0  0  0  0  0  0  0  0
  -22.0969   24.2845  -31.7322 N   0  0  0  0  0  0  0  0  0  0  0  0
  -22.3977   25.1302  -32.7098 N   0  0  0  0  0  0  0  0  0  0  0  0
  -23.6697   24.9897  -33.1060 C   0  0  0  0  0  0  0  0  0  0  0  0
  -24.3827   25.7139  -34.1407 C   0  0  0  0  0  0  0  0  0  0  0  0
  -23.9928   26.9473  -34.6080 C   0  0  0  0  0  0  0  0  0  0  0  0
  -24.7168   27.6153  -35.5970 C   0  0  0  0  0  0  0  0  0  0  0  0
  -25.8293   27.0462  -36.1152 N   0  0  0  0  0  0  0  0  0  0  0  0
  -26.2259   25.8478  -35.6749 C   0  0  0  0  0  0  0  0  0  0  0  0
  -25.5260   25.1748  -34.7014 C   0  0  0  0  0  0  0  0  0  0  0  0
  -24.2058   23.9795  -32.3182 C   0  0  0  0  0  0  0  0  0  0  0  0
  -25.4894   23.4154  -32.3046 C   0  0  0  0  0  0  0  0  0  0  0  0
  -29.0402   21.4975  -29.8279 C   0  0  2  0  0  0  0  0  0  0  0  0
  -30.0260   22.3964  -29.0549 C   0  0  0  0  0  0  0  0  0  0  0  0
  -30.4835   21.3608  -28.0343 C   0  0  0  0  0  0  0  0  0  0  0  0
  -29.2509   20.6878  -27.5766 N   0  0  0  0  0  0  0  0  0  0  0  0
  -29.5156   19.2503  -27.5603 C   0  0  0  0  0  0  0  0  0  0  0  0
  -30.8899   18.8260  -27.6614 C   0  0  0  0  0  0  0  0  0  0  0  0
  -31.6902   19.4303  -26.8169 O   0  0  0  0  0  0  0  0  0  0  0  0
  -31.5242   17.8896  -28.4879 N   0  0  0  0  0  0  0  0  0  0  0  0
  -32.9820   17.9996  -28.7412 C   0  0  0  0  0  0  0  0  0  0  0  0
  -33.5894   16.7857  -28.0364 C   0  0  0  0  0  0  0  0  0  0  0  0
  -32.5461   15.9417  -27.4837 N   0  0  0  0  0  0  0  0  0  0  0  0
  -32.6854   15.5102  -26.1492 C   0  0  0  0  0  0  0  0  0  0  0  0
  -32.0019   14.3751  -25.7185 C   0  0  0  0  0  0  0  0  0  0  0  0
  -32.1152   13.8623  -24.4441 C   0  0  0  0  0  0  0  0  0  0  0  0
  -32.9425   14.4896  -23.5286 C   0  0  0  0  0  0  0  0  0  0  0  0
  -33.0584   13.9294  -22.1876 C   0  0  0  0  0  0  0  0  0  0  0  0
  -33.8280   14.5537  -21.2652 N   0  0  0  0  0  0  0  0  0  0  0  0
  -33.9203   14.0009  -20.0345 C   0  0  0  0  0  0  0  0  0  0  0  0
  -33.2732   12.8431  -19.6811 C   0  0  0  0  0  0  0  0  0  0  0  0
  -32.4928   12.2234  -20.6415 C   0  0  0  0  0  0  0  0  0  0  0  0
  -32.4305   12.8063  -21.8446 N   0  0  0  0  0  0  0  0  0  0  0  0
  -33.6230   15.6100  -23.9334 C   0  0  0  0  0  0  0  0  0  0  0  0
  -33.4978   16.1185  -25.2321 C   0  0  0  0  0  0  0  0  0  0  0  0
  -31.3991   15.5331  -28.2556 C   0  0  0  0  0  0  0  0  0  0  0  0
  -30.9681   16.7220  -29.1170 C   0  0  0  0  0  0  0  0  0  0  0  0
  -28.2738   20.9412  -28.6635 C   0  0  0  0  0  0  0  0  0  0  0  0
  1  2  2  0
  2  3  1  0
  3  4  1  0
  4  5  2  0
  5  6  1  0
  6  7  2  0
  7  8  1  0
  8  9  1  0
  9 10  2  0
 10 11  1  0
 11 12  2  0
 12 13  1  0
 13 14  2  0
 14 15  1  0
 15 16  2  0
 10 17  1  0
 17 18  2  0
 19  2  1  6
 19 20  1  0
 20 21  1  0
 21 22  1  0
 22 23  1  0
 23 24  1  0
 24 25  2  0
 24 26  1  0
 26 27  1  0
 27 28  1  0
 28 29  1  0
 29 30  1  0
 30 31  2  0
 31 32  1  0
 32 33  2  0
 33 34  1  0
 34 35  2  0
 35 36  1  0
 36 37  2  0
 37 38  1  0
 38 39  2  0
 33 40  1  0
 40 41  2  0
 29 42  1  0
 42 43  1  0
 22 44  1  0
 18  4  1  0
 44 19  1  0
 17  7  1  0
 43 26  1  0
 16 11  1  0
 41 30  1  0
 39 34  1  0
M  END
$$$$
