
     RDKit          3D

 25 29  0  0  0  0  0  0  0  0999 V2000
  -16.0778   44.4927  -21.4012 N   0  0  0  0  0  0  0  0  0  0  0  0
  -16.5984   43.7201  -20.3460 C   0  0  0  0  0  0  0  0  0  0  0  0
  -16.6269   43.9875  -19.0452 N   0  0  0  0  0  0  0  0  0  0  0  0
  -17.2042   43.0104  -18.3623 N   0  0  0  0  0  0  0  0  0  0  0  0
  -17.5705   42.0650  -19.2338 C   0  0  0  0  0  0  0  0  0  0  0  0
  -18.1838   40.8885  -19.0640 N   0  0  0  0  0  0  0  0  0  0  0  0
  -18.4345   40.1323  -20.1010 N   0  0  0  0  0  0  0  0  0  0  0  0
  -18.1142   40.4518  -21.3729 C   0  0  0  0  0  0  0  0  0  0  0  0
  -18.4193   39.5675  -22.4913 C   0  0  0  0  0  0  0  0  0  0  0  0
  -18.7186   39.9565  -23.7782 C   0  0  0  0  0  0  0  0  0  0  0  0
  -18.7851   41.3295  -24.2690 C   0  0  0  0  0  0  0  0  0  0  0  0
  -18.0476   41.6676  -25.3822 C   0  0  0  0  0  0  0  0  0  0  0  0
  -18.0675   42.9398  -25.8921 C   0  0  0  0  0  0  0  0  0  0  0  0
  -18.8332   43.9036  -25.2900 C   0  0  0  0  0  0  0  0  0  0  0  0
  -19.5852   43.5982  -24.1713 C   0  0  0  0  0  0  0  0  0  0  0  0
  -19.5550   42.3072  -23.6672 C   0  0  0  0  0  0  0  0  0  0  0  0
  -18.9381   38.8472  -24.5023 N   0  0  0  0  0  0  0  0  0  0  0  0
  -18.7993   37.7499  -23.7603 N   0  0  0  0  0  0  0  0  0  0  0  0
  -18.9189   36.4362  -24.0412 C   0  0  0  0  0  0  0  0  0  0  0  0
  -18.7183   35.4873  -23.0679 C   0  0  0  0  0  0  0  0  0  0  0  0
  -18.3911   35.9174  -21.7959 C   0  0  0  0  0  0  0  0  0  0  0  0
  -18.2684   37.2565  -21.5063 C   0  0  0  0  0  0  0  0  0  0  0  0
  -18.4805   38.1894  -22.5242 C   0  0  0  0  0  0  0  0  0  0  0  0
  -17.4785   41.6719  -21.5453 C   0  0  0  0  0  0  0  0  0  0  0  0
  -17.2091   42.4726  -20.4803 C   0  0  0  0  0  0  0  0  0  0  0  0
  1  2  1  0
  2  3  2  0
  3  4  1  0
  4  5  1  0
  5  6  2  0
  6  7  1  0
  7  8  2  0
  8  9  1  0
  9 10  1  0
 10 11  1  0
 11 12  2  0
 12 13  1  0
 13 14  2  0
 14 15  1  0
 15 16  2  0
 10 17  2  0
 17 18  1  0
 18 19  1  0
 19 20  2  0
 20 21  1  0
 21 22  2  0
 22 23  1  0
  8 24  1  0
 24 25  2  0
 25  2  1  0
 25  5  1  0
 23  9  2  0
 16 11  1  0
 23 18  1  0
M  END
$$$$
