
     RDKit          3D

 22 25  0  0  0  0  0  0  0  0999 V2000
  -17.8573   39.7065  -19.1337 O   0  0  0  0  0  0  0  0  0  0  0  0
  -18.1468   38.8180  -19.9682 C   0  0  0  0  0  0  0  0  0  0  0  0
  -18.2615   37.4338  -19.7901 N   0  0  0  0  0  0  0  0  0  0  0  0
  -18.6119   36.8364  -21.0354 C   0  0  0  0  0  0  0  0  0  0  0  0
  -18.8297   35.4925  -21.3305 C   0  0  0  0  0  0  0  0  0  0  0  0
  -19.1596   35.1232  -22.5982 C   0  0  0  0  0  0  0  0  0  0  0  0
  -19.4508   33.2836  -22.9714 Br  0  0  0  0  0  0  0  0  0  0  0  0
  -19.2761   36.0725  -23.5784 C   0  0  0  0  0  0  0  0  0  0  0  0
  -19.0626   37.4342  -23.3114 C   0  0  0  0  0  0  0  0  0  0  0  0
  -18.7326   37.7990  -22.0408 C   0  0  0  0  0  0  0  0  0  0  0  0
  -18.4450   39.0569  -21.3971 C   0  0  0  0  0  0  0  0  0  0  0  0
  -18.4418   40.2534  -21.9728 C   0  0  0  0  0  0  0  0  0  0  0  0
  -18.0283   41.4501  -21.3013 N   0  0  0  0  0  0  0  0  0  0  0  0
  -18.1410   42.5782  -22.1962 C   0  0  0  0  0  0  0  0  0  0  0  0
  -17.8546   43.9074  -21.9758 C   0  0  0  0  0  0  0  0  0  0  0  0
  -18.0476   44.7975  -22.9982 C   0  0  0  0  0  0  0  0  0  0  0  0
  -18.5184   44.3636  -24.2173 C   0  0  0  0  0  0  0  0  0  0  0  0
  -18.7969   43.0275  -24.4100 C   0  0  0  0  0  0  0  0  0  0  0  0
  -18.6104   42.1007  -23.3895 C   0  0  0  0  0  0  0  0  0  0  0  0
  -18.8170   40.6493  -23.3074 C   0  0  0  0  0  0  0  0  0  0  0  0
  -19.2426   39.9968  -24.2819 N   0  0  0  0  0  0  0  0  0  0  0  0
  -19.4988   40.3988  -25.5423 O   0  0  0  0  0  0  0  0  0  0  0  0
  1  2  2  0
  2  3  1  0
  3  4  1  0
  4  5  2  0
  5  6  1  0
  6  7  1  0
  6  8  2  0
  8  9  1  0
  9 10  2  0
 10 11  1  0
 11 12  2  0
 12 13  1  0
 13 14  1  0
 14 15  2  0
 15 16  1  0
 16 17  2  0
 17 18  1  0
 18 19  2  0
 19 20  1  0
 20 21  2  0
 21 22  1  0
 11  2  1  0
 20 12  1  0
 10  4  1  0
 19 14  1  0
M  END
$$$$
