
     RDKit          3D

 32 36  0  0  0  0  0  0  0  0999 V2000
  -16.2595   36.0759  -20.5734 C   0  0  0  0  0  0  0  0  0  0  0  0
  -17.2081   35.5134  -21.6052 C   0  0  0  0  0  0  0  0  0  0  0  0
  -16.9794   34.0209  -21.6781 C   0  0  0  0  0  0  0  0  0  0  0  0
  -16.8631   36.0433  -22.8394 O   0  0  0  0  0  0  0  0  0  0  0  0
  -18.0410   36.1870  -23.5552 C   0  0  2  0  0  0  0  0  0  0  0  0
  -18.0030   37.5661  -24.2332 C   0  0  0  0  0  0  0  0  0  0  0  0
  -18.3101   38.4118  -23.0733 C   0  0  1  0  0  0  0  0  0  0  0  0
  -18.7869   39.8171  -23.3252 C   0  0  2  0  0  0  0  0  0  0  0  0
  -17.9655   40.5120  -24.3714 C   0  0  0  0  0  0  0  0  0  0  0  0
  -18.1549   41.9906  -24.4283 C   0  0  2  0  0  0  0  0  0  0  0  0
  -17.1889   42.6170  -25.1848 F   0  0  0  0  0  0  0  0  0  0  0  0
  -18.1148   42.5344  -22.9937 C   0  0  0  0  0  0  0  0  0  0  0  0
  -17.2981   43.5149  -22.7232 C   0  0  0  0  0  0  0  0  0  0  0  0
  -17.1778   44.1050  -21.3947 C   0  0  0  0  0  0  0  0  0  0  0  0
  -16.3920   45.0481  -21.1378 O   0  0  0  0  0  0  0  0  0  0  0  0
  -18.0442   43.5109  -20.3890 C   0  0  0  0  0  0  0  0  0  0  0  0
  -18.8586   42.5321  -20.6661 C   0  0  0  0  0  0  0  0  0  0  0  0
  -18.9936   41.9330  -21.9903 C   0  0  1  0  0  0  0  0  0  0  0  0
  -20.4227   42.1660  -22.4913 C   0  0  0  0  0  0  0  0  0  0  0  0
  -18.6921   40.4402  -21.9495 C   0  0  2  0  0  0  0  0  0  0  0  0
  -17.3079   40.4061  -21.6708 F   0  0  0  0  0  0  0  0  0  0  0  0
  -19.3684   39.6955  -20.8739 C   0  0  1  0  0  0  0  0  0  0  0  0
  -20.6647   40.2128  -20.6727 O   0  0  0  0  0  0  0  0  0  0  0  0
  -19.4790   38.2274  -20.9944 C   0  0  0  0  0  0  0  0  0  0  0  0
  -19.4743   37.7063  -22.4227 C   0  0  1  0  0  0  0  0  0  0  0  0
  -20.8061   37.9922  -23.0282 C   0  0  0  0  0  0  0  0  0  0  0  0
  -19.1172   36.2705  -22.5294 C   0  0  1  0  0  0  0  0  0  0  0  0
  -20.2400   35.3409  -22.8116 C   0  0  0  0  0  0  0  0  0  0  0  0
  -20.7881   35.5053  -23.9229 O   0  0  0  0  0  0  0  0  0  0  0  0
  -20.7521   34.2919  -21.9292 C   0  0  0  0  0  0  0  0  0  0  0  0
  -21.7761   33.5874  -22.6096 O   0  0  0  0  0  0  0  0  0  0  0  0
  -18.4938   35.8579  -21.3235 O   0  0  0  0  0  0  0  0  0  0  0  0
  1  2  1  0
  2  3  1  0
  2  4  1  0
  4  5  1  0
  5  6  1  1
  7  6  1  6
  7  8  1  0
  8  9  1  6
  9 10  1  0
 10 11  1  6
 10 12  1  0
 12 13  2  0
 13 14  1  0
 14 15  2  0
 14 16  1  0
 16 17  2  0
 17 18  1  0
 18 19  1  6
 18 20  1  0
 20 21  1  1
 20 22  1  0
 22 23  1  6
 22 24  1  0
 24 25  1  0
 25 26  1  6
 25 27  1  0
 27 28  1  6
 28 29  2  0
 28 30  1  0
 30 31  1  0
 27 32  1  0
 32  2  1  0
 27  5  1  0
 25  7  1  0
 20  8  1  0
 18 12  1  0
M  END
$$$$
