
     RDKit          3D

 25 28  0  0  0  0  0  0  0  0999 V2000
  -40.7460    8.0696  -42.5558 Cl  0  0  0  0  0  0  0  0  0  0  0  0
  -39.8422    9.4233  -41.9124 C   0  0  0  0  0  0  0  0  0  0  0  0
  -38.5954    9.6776  -42.4432 C   0  0  0  0  0  0  0  0  0  0  0  0
  -37.8858   10.7476  -41.9414 C   0  0  0  0  0  0  0  0  0  0  0  0
  -38.4087   11.5370  -40.9402 C   0  0  0  0  0  0  0  0  0  0  0  0
  -39.6648   11.2501  -40.4320 C   0  0  0  0  0  0  0  0  0  0  0  0
  -40.4089   10.1924  -40.9020 C   0  0  0  0  0  0  0  0  0  0  0  0
  -41.7547    9.8884  -40.3524 C   0  0  0  0  0  0  0  0  0  0  0  0
  -42.7667   10.2545  -41.3715 C   0  0  0  0  0  0  0  0  0  0  0  0
  -42.3794   10.7313  -42.6136 C   0  0  0  0  0  0  0  0  0  0  0  0
  -43.2624   11.0891  -43.5987 C   0  0  0  0  0  0  0  0  0  0  0  0
  -44.6069   10.9612  -43.3214 C   0  0  0  0  0  0  0  0  0  0  0  0
  -45.0125   10.4873  -42.0876 C   0  0  0  0  0  0  0  0  0  0  0  0
  -44.1092   10.1302  -41.1034 C   0  0  0  0  0  0  0  0  0  0  0  0
  -42.0583   10.7917  -39.1794 C   0  0  0  0  0  0  0  0  0  0  0  0
  -42.3947   12.0961  -39.3319 C   0  0  0  0  0  0  0  0  0  0  0  0
  -42.6628   12.8467  -38.1950 C   0  0  0  0  0  0  0  0  0  0  0  0
  -42.5983   12.3112  -36.9269 C   0  0  0  0  0  0  0  0  0  0  0  0
  -42.2542   10.9849  -36.8156 C   0  0  0  0  0  0  0  0  0  0  0  0
  -41.9842   10.2212  -37.9274 C   0  0  0  0  0  0  0  0  0  0  0  0
  -41.8449    8.5227  -39.8907 N   0  0  0  0  0  0  0  0  0  0  0  0
  -40.8325    7.8099  -39.3132 C   0  0  0  0  0  0  0  0  0  0  0  0
  -41.2726    6.5442  -38.9877 C   0  0  0  0  0  0  0  0  0  0  0  0
  -42.5827    6.5047  -39.3830 C   0  0  0  0  0  0  0  0  0  0  0  0
  -42.8596    7.6848  -39.9014 N   0  0  0  0  0  0  0  0  0  0  0  0
  1  2  1  0
  2  3  2  0
  3  4  1  0
  4  5  2  0
  5  6  1  0
  6  7  2  0
  7  8  1  0
  8  9  1  0
  9 10  2  0
 10 11  1  0
 11 12  2  0
 12 13  1  0
 13 14  2  0
  8 15  1  0
 15 16  2  0
 16 17  1  0
 17 18  2  0
 18 19  1  0
 19 20  2  0
  8 21  1  0
 21 22  1  0
 22 23  2  0
 23 24  1  0
 24 25  2  0
  7  2  1  0
 14  9  1  0
 20 15  1  0
 25 21  1  0
M  END
$$$$
