
     RDKit          3D

 17 18  0  0  0  0  0  0  0  0999 V2000
  -19.1212   35.8640  -23.8638 C   0  0  0  0  0  0  0  0  0  0  0  0
  -18.8640   37.2770  -23.4879 C   0  0  0  0  0  0  0  0  0  0  0  0
  -19.3935   38.3483  -24.1655 C   0  0  0  0  0  0  0  0  0  0  0  0
  -20.2435   38.2512  -25.2974 N   0  0  0  0  0  0  0  0  0  0  0  0
  -21.0015   37.0346  -25.5697 C   0  0  0  0  0  0  0  0  0  0  0  0
  -20.4036   39.3416  -26.2336 C   0  0  0  0  0  0  0  0  0  0  0  0
  -18.9200   39.4677  -23.5092 C   0  0  0  0  0  0  0  0  0  0  0  0
  -19.1762   40.6441  -23.8211 O   0  0  0  0  0  0  0  0  0  0  0  0
  -18.1286   39.0797  -22.4669 N   0  0  0  0  0  0  0  0  0  0  0  0
  -17.4694   39.9647  -21.5696 C   0  0  0  0  0  0  0  0  0  0  0  0
  -16.2953   40.6217  -21.8781 C   0  0  0  0  0  0  0  0  0  0  0  0
  -15.6686   41.4769  -20.9963 C   0  0  0  0  0  0  0  0  0  0  0  0
  -16.2293   41.6976  -19.7404 C   0  0  0  0  0  0  0  0  0  0  0  0
  -17.3866   41.0605  -19.4148 C   0  0  0  0  0  0  0  0  0  0  0  0
  -17.9937   40.2097  -20.3152 C   0  0  0  0  0  0  0  0  0  0  0  0
  -18.1047   37.7567  -22.4672 N   0  0  0  0  0  0  0  0  0  0  0  0
  -17.3747   36.9503  -21.5167 C   0  0  0  0  0  0  0  0  0  0  0  0
  1  2  1  0
  2  3  2  0
  3  4  1  0
  4  5  1  0
  4  6  1  0
  3  7  1  0
  7  8  2  0
  7  9  1  0
  9 10  1  0
 10 11  2  0
 11 12  1  0
 12 13  2  0
 13 14  1  0
 14 15  2  0
  9 16  1  0
 16 17  1  0
 16  2  1  0
 15 10  1  0
M  END
$$$$
