
     RDKit          3D

 13 12  0  0  0  0  0  0  0  0999 V2000
  -18.8731   40.2134  -23.3614 O   0  0  0  0  0  0  0  0  0  0  0  0
  -18.3550   40.3601  -22.2339 C   0  0  0  0  0  0  0  0  0  0  0  0
  -18.8267   41.3171  -21.3541 O   0  0  0  0  0  0  0  0  0  0  0  0
  -17.2131   39.5090  -21.8012 C   0  0  0  0  0  0  0  0  0  0  0  0
  -17.6855   38.1815  -21.3229 C   0  0  0  0  0  0  0  0  0  0  0  0
  -17.1974   37.0544  -22.1910 C   0  0  0  0  0  0  0  0  0  0  0  0
  -18.3904   36.3954  -22.8207 C   0  0  0  0  0  0  0  0  0  0  0  0
  -18.9535   35.2837  -21.9605 C   0  0  0  0  0  0  0  0  0  0  0  0
  -18.7801   33.9358  -22.5825 C   0  0  0  0  0  0  0  0  0  0  0  0
  -19.3018   32.8592  -21.6831 C   0  0  0  0  0  0  0  0  0  0  0  0
  -20.7301   32.5765  -21.7867 C   0  0  0  0  0  0  0  0  0  0  0  0
  -21.3547   31.6211  -21.2842 O   0  0  0  0  0  0  0  0  0  0  0  0
  -21.5081   33.4806  -22.5399 O   0  0  0  0  0  0  0  0  0  0  0  0
  1  2  2  0
  2  3  1  0
  2  4  1  0
  4  5  1  0
  5  6  1  0
  6  7  1  0
  7  8  1  0
  8  9  1  0
  9 10  1  0
 10 11  1  0
 11 12  2  0
 11 13  1  0
M  END
$$$$
