
     RDKit          3D

 40 44  0  0  0  0  0  0  0  0999 V2000
  -20.7924   38.9973  -27.5066 C   0  0  0  0  0  0  0  0  0  0  0  0
  -21.6350   39.8542  -26.6634 N   0  0  0  0  0  0  0  0  0  0  0  0
  -21.4727   39.4028  -25.3240 C   0  0  0  0  0  0  0  0  0  0  0  0
  -21.3533   40.5663  -24.3019 C   0  0  0  0  0  0  0  0  0  0  0  0
  -20.1339   41.2612  -24.5942 N   0  0  0  0  0  0  0  0  0  0  0  0
  -19.1684   41.7627  -23.7039 C   0  0  0  0  0  0  0  0  0  0  0  0
  -18.8929   43.1196  -23.6527 C   0  0  0  0  0  0  0  0  0  0  0  0
  -17.9500   43.6127  -22.7975 C   0  0  0  0  0  0  0  0  0  0  0  0
  -17.2618   42.7164  -21.9691 C   0  0  0  0  0  0  0  0  0  0  0  0
  -16.2947   43.2882  -21.0662 C   0  0  0  0  0  0  0  0  0  0  0  0
  -15.0406   42.7111  -20.9126 C   0  0  0  0  0  0  0  0  0  0  0  0
  -14.0626   43.2151  -20.0892 C   0  0  0  0  0  0  0  0  0  0  0  0
  -14.3523   44.3597  -19.3795 C   0  0  0  0  0  0  0  0  0  0  0  0
  -15.5738   44.9813  -19.4840 C   0  0  0  0  0  0  0  0  0  0  0  0
  -15.8560   46.2515  -18.7242 C   0  0  0  0  0  0  0  0  0  0  0  0
  -14.6610   46.8287  -18.2587 N   0  0  0  0  0  0  0  0  0  0  0  0
  -14.4191   48.1217  -18.7954 C   0  0  0  0  0  0  0  0  0  0  0  0
  -13.4742   48.8425  -17.8351 C   0  0  0  0  0  0  0  0  0  0  0  0
  -14.1534   49.0714  -16.6502 O   0  0  0  0  0  0  0  0  0  0  0  0
  -14.5741   47.8936  -16.0646 C   0  0  0  0  0  0  0  0  0  0  0  0
  -14.2897   46.6625  -16.9091 C   0  0  0  0  0  0  0  0  0  0  0  0
  -16.5244   44.4350  -20.3242 C   0  0  0  0  0  0  0  0  0  0  0  0
  -17.5218   41.3830  -22.0103 C   0  0  0  0  0  0  0  0  0  0  0  0
  -18.4655   40.8639  -22.8604 C   0  0  0  0  0  0  0  0  0  0  0  0
  -18.8223   39.5014  -22.9183 N   0  0  0  0  0  0  0  0  0  0  0  0
  -18.3611   38.4376  -22.1329 C   0  0  0  0  0  0  0  0  0  0  0  0
  -17.5305   38.6496  -21.2428 O   0  0  0  0  0  0  0  0  0  0  0  0
  -18.7898   37.0367  -22.2762 C   0  0  0  0  0  0  0  0  0  0  0  0
  -20.1268   36.7955  -22.5948 C   0  0  0  0  0  0  0  0  0  0  0  0
  -20.6462   35.5764  -22.7574 N   0  0  0  0  0  0  0  0  0  0  0  0
  -19.8126   34.5304  -22.6006 C   0  0  0  0  0  0  0  0  0  0  0  0
  -20.2995   33.3858  -22.7528 O   0  0  0  0  0  0  0  0  0  0  0  0
  -18.4821   34.6779  -22.2869 C   0  0  0  0  0  0  0  0  0  0  0  0
  -17.9788   35.9601  -22.1256 C   0  0  0  0  0  0  0  0  0  0  0  0
  -16.5389   36.1554  -21.7902 C   0  0  0  0  0  0  0  0  0  0  0  0
  -16.4577   36.7162  -20.5035 F   0  0  0  0  0  0  0  0  0  0  0  0
  -15.8483   34.9691  -21.7291 F   0  0  0  0  0  0  0  0  0  0  0  0
  -15.9910   37.0894  -22.6251 F   0  0  0  0  0  0  0  0  0  0  0  0
  -19.9089   41.4672  -26.0253 C   0  0  0  0  0  0  0  0  0  0  0  0
  -21.2077   41.2413  -26.7803 C   0  0  0  0  0  0  0  0  0  0  0  0
  1  2  1  0
  2  3  1  0
  3  4  1  0
  4  5  1  0
  5  6  1  0
  6  7  2  0
  7  8  1  0
  8  9  2  0
  9 10  1  0
 10 11  2  0
 11 12  1  0
 12 13  2  0
 13 14  1  0
 14 15  1  0
 15 16  1  0
 16 17  1  0
 17 18  1  0
 18 19  1  0
 19 20  1  0
 20 21  1  0
 14 22  2  0
  9 23  1  0
 23 24  2  0
 24 25  1  0
 25 26  1  0
 26 27  2  0
 26 28  1  0
 28 29  2  0
 29 30  1  0
 30 31  1  0
 31 32  2  0
 31 33  1  0
 33 34  2  0
 34 35  1  0
 35 36  1  0
 35 37  1  0
 35 38  1  0
  5 39  1  0
 39 40  1  0
 40  2  1  0
 24  6  1  0
 34 28  1  0
 22 10  1  0
 21 16  1  0
M  END
$$$$
