
     RDKit          3D

 18 20  0  0  0  0  0  0  0  0999 V2000
  -18.6879   36.2257  -24.8394 O   0  0  0  0  0  0  0  0  0  0  0  0
  -19.1427   37.3503  -24.5426 C   0  0  0  0  0  0  0  0  0  0  0  0
  -18.4906   38.1079  -23.4898 C   0  0  0  0  0  0  0  0  0  0  0  0
  -17.2652   38.7061  -23.6344 C   0  0  0  0  0  0  0  0  0  0  0  0
  -16.7209   39.4012  -22.5886 C   0  0  0  0  0  0  0  0  0  0  0  0
  -17.3500   39.5391  -21.3642 C   0  0  0  0  0  0  0  0  0  0  0  0
  -18.5781   38.9325  -21.2376 C   0  0  0  0  0  0  0  0  0  0  0  0
  -19.1537   38.2279  -22.2653 C   0  0  0  0  0  0  0  0  0  0  0  0
  -19.2419   39.0456  -20.0279 O   0  0  0  0  0  0  0  0  0  0  0  0
  -18.5987   39.4049  -18.8457 C   0  0  0  0  0  0  0  0  0  0  0  0
  -17.1988   39.9022  -18.9916 C   0  0  0  0  0  0  0  0  0  0  0  0
  -16.8258   40.2315  -20.2986 O   0  0  0  0  0  0  0  0  0  0  0  0
  -20.2601   37.9026  -25.1926 N   0  0  0  0  0  0  0  0  0  0  0  0
  -20.6637   39.2755  -24.9754 C   0  0  0  0  0  0  0  0  0  0  0  0
  -20.5876   39.9535  -26.3240 C   0  0  0  0  0  0  0  0  0  0  0  0
  -20.1391   39.0687  -27.4387 C   0  0  0  0  0  0  0  0  0  0  0  0
  -20.7734   37.7166  -27.4944 C   0  0  0  0  0  0  0  0  0  0  0  0
  -21.0975   37.1542  -26.1323 C   0  0  0  0  0  0  0  0  0  0  0  0
  1  2  2  0
  2  3  1  0
  3  4  2  0
  4  5  1  0
  5  6  2  0
  6  7  1  0
  7  8  2  0
  7  9  1  0
  9 10  1  0
 10 11  1  0
 11 12  1  0
  2 13  1  0
 13 14  1  0
 14 15  1  0
 15 16  1  0
 16 17  1  0
 17 18  1  0
  8  3  1  0
 18 13  1  0
 12  6  1  0
M  END
$$$$
