
     RDKit          3D

 33 36  0  0  0  0  0  0  0  0999 V2000
  -17.1957   20.1479  -39.2576 C   0  0  0  0  0  0  0  0  0  0  0  0
  -17.8633   18.9243  -38.6920 C   0  0  0  0  0  0  0  0  0  0  0  0
  -17.2008   18.3935  -37.5751 O   0  0  0  0  0  0  0  0  0  0  0  0
  -17.6931   17.3537  -36.8222 C   0  0  0  0  0  0  0  0  0  0  0  0
  -18.7506   16.7892  -37.1639 O   0  0  0  0  0  0  0  0  0  0  0  0
  -16.9994   16.8657  -35.5911 C   0  0  0  0  0  0  0  0  0  0  0  0
  -17.5066   15.4173  -35.3882 C   0  0  0  0  0  0  0  0  0  0  0  0
  -17.1336   17.5551  -34.5070 O   0  0  0  0  0  0  0  0  0  0  0  0
  -17.2589   18.2126  -33.4037 C   0  0  0  0  0  0  0  0  0  0  0  0
  -16.2283   18.2078  -32.4389 C   0  0  0  0  0  0  0  0  0  0  0  0
  -16.4288   18.9246  -31.2965 C   0  0  0  0  0  0  0  0  0  0  0  0
  -17.5734   19.6430  -31.0433 C   0  0  0  0  0  0  0  0  0  0  0  0
  -18.5935   19.6683  -31.9602 C   0  0  0  0  0  0  0  0  0  0  0  0
  -19.7622   20.3844  -31.7342 C   0  0  0  0  0  0  0  0  0  0  0  0
  -19.9057   21.0336  -30.6636 O   0  0  0  0  0  0  0  0  0  0  0  0
  -20.7624   20.4107  -32.6304 N   0  0  0  0  0  0  0  0  0  0  0  0
  -21.9899   21.1663  -32.3861 C   0  0  0  0  0  0  0  0  0  0  0  0
  -22.8803   20.4283  -31.4493 C   0  0  0  0  0  0  0  0  0  0  0  0
  -22.8694   19.1760  -31.3602 O   0  0  0  0  0  0  0  0  0  0  0  0
  -23.7788   21.1607  -30.6219 N   0  0  0  0  0  0  0  0  0  0  0  0
  -24.5925   20.4745  -29.6804 C   0  0  0  0  0  0  0  0  0  0  0  0
  -25.2386   21.1155  -28.6457 C   0  0  0  0  0  0  0  0  0  0  0  0
  -26.0157   20.3967  -27.7615 C   0  0  0  0  0  0  0  0  0  0  0  0
  -26.1875   19.0337  -27.8574 C   0  0  0  0  0  0  0  0  0  0  0  0
  -25.5354   18.3986  -28.8989 C   0  0  0  0  0  0  0  0  0  0  0  0
  -24.7515   19.1066  -29.7948 C   0  0  0  0  0  0  0  0  0  0  0  0
  -25.7034   17.0185  -29.0039 O   0  0  0  0  0  0  0  0  0  0  0  0
  -26.7078   16.3577  -28.2560 C   0  0  0  0  0  0  0  0  0  0  0  0
  -26.6654   16.9209  -26.8389 C   0  0  0  0  0  0  0  0  0  0  0  0
  -26.9698   18.3089  -26.9675 O   0  0  0  0  0  0  0  0  0  0  0  0
  -20.6015   19.7155  -33.7701 C   0  0  0  0  0  0  0  0  0  0  0  0
  -19.4571   18.9894  -34.0379 C   0  0  0  0  0  0  0  0  0  0  0  0
  -18.4195   18.9579  -33.1158 C   0  0  0  0  0  0  0  0  0  0  0  0
  1  2  1  0
  2  3  1  0
  3  4  1  0
  4  5  2  0
  4  6  1  0
  6  7  1  0
  6  8  1  0
  8  9  1  0
  9 10  2  0
 10 11  1  0
 11 12  2  0
 12 13  1  0
 13 14  1  0
 14 15  2  0
 14 16  1  0
 16 17  1  0
 17 18  1  0
 18 19  2  0
 18 20  1  0
 20 21  1  0
 21 22  2  0
 22 23  1  0
 23 24  2  0
 24 25  1  0
 25 26  2  0
 25 27  1  0
 27 28  1  0
 28 29  1  0
 29 30  1  0
 16 31  1  0
 31 32  2  0
 32 33  1  0
 33  9  1  0
 33 13  2  0
 26 21  1  0
 30 24  1  0
M  END
$$$$
