
     RDKit          3D

 10 10  0  0  0  0  0  0  0  0999 V2000
  -20.8611   34.5872  -21.4116 C   0  0  0  0  0  0  0  0  0  0  0  0
  -19.8096   34.3424  -22.4625 C   0  0  0  0  0  0  0  0  0  0  0  0
  -19.0112   33.0738  -22.1514 C   0  0  0  0  0  0  0  0  0  0  0  0
  -19.6369   32.0014  -22.9066 N   0  0  0  0  0  0  0  0  0  0  0  0
  -18.8447   35.4648  -22.3952 C   0  0  0  0  0  0  0  0  0  0  0  0
  -17.7371   35.3174  -21.5951 C   0  0  0  0  0  0  0  0  0  0  0  0
  -16.8378   36.3577  -21.5296 C   0  0  0  0  0  0  0  0  0  0  0  0
  -17.0404   37.5261  -22.2507 C   0  0  0  0  0  0  0  0  0  0  0  0
  -18.1588   37.6518  -23.0470 C   0  0  0  0  0  0  0  0  0  0  0  0
  -19.0702   36.6108  -23.1201 C   0  0  0  0  0  0  0  0  0  0  0  0
  1  2  1  0
  2  3  1  0
  3  4  1  0
  2  5  1  0
  5  6  2  0
  6  7  1  0
  7  8  2  0
  8  9  1  0
  9 10  2  0
 10  5  1  0
M  END
$$$$
