
     RDKit          3D

 17 18  0  0  0  0  0  0  0  0999 V2000
  -43.7217    9.9493  -42.4499 Cl  0  0  0  0  0  0  0  0  0  0  0  0
  -40.4824   12.3459  -40.9895 C   0  0  0  0  0  0  0  0  0  0  0  0
  -40.5750   11.0494  -41.4403 C   0  0  0  0  0  0  0  0  0  0  0  0
  -41.7877   10.3790  -41.3922 C   0  0  0  0  0  0  0  0  0  0  0  0
  -42.9094   10.9787  -40.9030 C   0  0  0  0  0  0  0  0  0  0  0  0
  -44.0921   10.2758  -40.8676 C   0  0  0  0  0  0  0  0  0  0  0  0
  -44.2257    8.8961  -41.3651 C   0  0  0  0  0  0  0  0  0  0  0  0
  -44.3341    8.8118  -42.8541 C   0  0  0  0  0  0  0  0  0  0  0  0
  -45.3745    9.2379  -43.5312 N   0  0  0  0  0  0  0  0  0  0  0  0
  -45.2217    9.0392  -44.9362 C   0  0  0  0  0  0  0  0  0  0  0  0
  -44.0167    8.1541  -45.0781 C   0  0  0  0  0  0  0  0  0  0  0  0
  -43.3986    8.2933  -43.7768 N   0  0  0  0  0  0  0  0  0  0  0  0
  -45.1969   10.9582  -40.3439 C   0  0  0  0  0  0  0  0  0  0  0  0
  -45.1062   12.2523  -39.8929 C   0  0  0  0  0  0  0  0  0  0  0  0
  -43.9217   12.9253  -39.9403 C   0  0  0  0  0  0  0  0  0  0  0  0
  -42.8146   12.2805  -40.4503 C   0  0  0  0  0  0  0  0  0  0  0  0
  -41.6156   12.9526  -40.4945 C   0  0  0  0  0  0  0  0  0  0  0  0
  2  3  2  0
  3  4  1  0
  4  5  2  0
  5  6  1  0
  6  7  1  0
  7  8  1  0
  8  9  2  0
  9 10  1  0
 10 11  1  0
 11 12  1  0
  6 13  2  0
 13 14  1  0
 14 15  2  0
 15 16  1  0
 16 17  2  0
 17  2  1  0
 16  5  1  0
 12  8  1  0
M  END
$$$$
