
     RDKit          3D

 30 32  0  0  0  0  0  0  0  0999 V2000
  -26.4444   16.0903  -34.3777 C   0  0  0  0  0  0  0  0  0  0  0  0
  -25.1284   16.5166  -34.8690 C   0  0  0  0  0  0  0  0  0  0  0  0
  -23.9269   16.4539  -34.0251 C   0  0  0  0  0  0  0  0  0  0  0  0
  -22.8459   17.4025  -34.3989 N   0  0  0  0  0  0  0  0  0  0  0  0
  -23.0318   17.7273  -35.8154 C   0  0  0  0  0  0  0  0  0  0  0  0
  -21.8440   18.6678  -36.1811 C   0  0  0  0  0  0  0  0  0  0  0  0
  -20.7613   17.7326  -36.3237 N   0  0  0  0  0  0  0  0  0  0  0  0
  -19.5521   18.1788  -36.9613 C   0  0  0  0  0  0  0  0  0  0  0  0
  -18.5378   18.4523  -36.1358 C   0  0  0  0  0  0  0  0  0  0  0  0
  -17.2628   18.5092  -36.6546 C   0  0  0  0  0  0  0  0  0  0  0  0
  -17.0878   18.2777  -37.9934 C   0  0  0  0  0  0  0  0  0  0  0  0
  -15.6567   18.1000  -38.4487 C   0  0  0  0  0  0  0  0  0  0  0  0
  -14.7888   18.1663  -37.5733 O   0  0  0  0  0  0  0  0  0  0  0  0
  -15.4510   17.8468  -39.8085 N   0  0  0  0  0  0  0  0  0  0  0  0
  -14.1139   17.8622  -40.3479 C   0  0  0  0  0  0  0  0  0  0  0  0
  -13.8405   18.8543  -41.4200 C   0  0  0  0  0  0  0  0  0  0  0  0
  -12.8198   19.6259  -41.2588 O   0  0  0  0  0  0  0  0  0  0  0  0
  -14.7030   18.9108  -42.5154 N   0  0  0  0  0  0  0  0  0  0  0  0
  -15.8678   19.8049  -42.7090 C   0  0  0  0  0  0  0  0  0  0  0  0
  -15.1762   21.0577  -42.1572 C   0  0  0  0  0  0  0  0  0  0  0  0
  -14.5468   22.1787  -41.6372 N   0  0  0  0  0  0  0  0  0  0  0  0
  -13.0857   17.8719  -39.3082 C   0  0  0  0  0  0  0  0  0  0  0  0
  -11.8080   17.2294  -39.5945 C   0  0  0  0  0  0  0  0  0  0  0  0
  -11.4373   16.8977  -41.0112 C   0  0  0  0  0  0  0  0  0  0  0  0
  -12.6191   16.8451  -41.9603 C   0  0  0  0  0  0  0  0  0  0  0  0
  -13.8553   16.5460  -41.1855 C   0  0  0  0  0  0  0  0  0  0  0  0
  -18.1300   18.0095  -38.8334 C   0  0  0  0  0  0  0  0  0  0  0  0
  -19.4328   17.9597  -38.2870 C   0  0  0  0  0  0  0  0  0  0  0  0
  -20.9328   16.4324  -35.7311 C   0  0  0  0  0  0  0  0  0  0  0  0
  -21.6556   16.4616  -34.4406 C   0  0  0  0  0  0  0  0  0  0  0  0
  1  2  1  0
  2  3  1  0
  3  4  1  0
  4  5  1  0
  5  6  1  0
  6  7  1  0
  7  8  1  0
  8  9  2  0
  9 10  1  0
 10 11  2  0
 11 12  1  0
 12 13  2  0
 12 14  1  0
 14 15  1  0
 15 16  1  0
 16 17  2  0
 16 18  1  0
 18 19  1  0
 19 20  1  0
 20 21  3  0
 15 22  1  0
 22 23  1  0
 23 24  1  0
 24 25  1  0
 25 26  1  0
 11 27  1  0
 27 28  2  0
  7 29  1  0
 29 30  1  0
 30  4  1  0
 28  8  1  0
 26 15  1  0
M  END
$$$$
