
     RDKit          3D

 20 24  0  0  0  0  0  0  0  0999 V2000
   -8.0939    5.6553  -44.0076 C   0  0  0  0  0  0  0  0  0  0  0  0
   -8.7806    4.4735  -43.8512 C   0  0  0  0  0  0  0  0  0  0  0  0
   -8.1439    3.2677  -44.2055 C   0  0  0  0  0  0  0  0  0  0  0  0
   -6.8615    3.2489  -44.6997 C   0  0  0  0  0  0  0  0  0  0  0  0
   -6.1756    4.4625  -44.8529 C   0  0  0  0  0  0  0  0  0  0  0  0
   -6.8081    5.6397  -44.5029 C   0  0  0  0  0  0  0  0  0  0  0  0
   -4.8943    4.4332  -45.3477 C   0  0  0  0  0  0  0  0  0  0  0  0
   -4.2351    3.2776  -45.7060 C   0  0  0  0  0  0  0  0  0  0  0  0
   -2.9447    3.2854  -46.2009 C   0  0  0  0  0  0  0  0  0  0  0  0
   -2.2859    2.1294  -46.5591 C   0  0  0  0  0  0  0  0  0  0  0  0
   -2.9537    0.9258  -46.4120 C   0  0  0  0  0  0  0  0  0  0  0  0
   -2.2937   -0.2445  -46.7719 C   0  0  0  0  0  0  0  0  0  0  0  0
   -2.9664   -1.4354  -46.6218 C   0  0  0  0  0  0  0  0  0  0  0  0
   -4.2536   -1.4455  -46.1282 C   0  0  0  0  0  0  0  0  0  0  0  0
   -4.9065   -0.2709  -45.7707 C   0  0  0  0  0  0  0  0  0  0  0  0
   -6.1913   -0.2749  -45.2775 C   0  0  0  0  0  0  0  0  0  0  0  0
   -6.8628    0.9002  -44.9128 C   0  0  0  0  0  0  0  0  0  0  0  0
   -6.2097    2.0885  -45.0556 C   0  0  0  0  0  0  0  0  0  0  0  0
   -4.9066    2.0820  -45.5567 C   0  0  0  0  0  0  0  0  0  0  0  0
   -4.2425    0.9274  -45.9168 C   0  0  0  0  0  0  0  0  0  0  0  0
  1  2  2  0
  2  3  1  0
  3  4  2  0
  4  5  1  0
  5  6  2  0
  5  7  1  0
  7  8  2  0
  8  9  1  0
  9 10  2  0
 10 11  1  0
 11 12  2  0
 12 13  1  0
 13 14  2  0
 14 15  1  0
 15 16  2  0
 16 17  1  0
 17 18  2  0
 18 19  1  0
 19 20  2  0
  6  1  1  0
 19  8  1  0
 18  4  1  0
 20 11  1  0
 20 15  1  0
M  END
$$$$
