
     RDKit          3D

 23 25  0  0  0  0  0  0  0  0999 V2000
  -19.8133   32.2345  -22.1170 O   0  0  0  0  0  0  0  0  0  0  0  0
  -20.1790   33.4081  -21.8514 C   0  0  0  0  0  0  0  0  0  0  0  0
  -21.4527   33.6016  -21.3875 O   0  0  0  0  0  0  0  0  0  0  0  0
  -19.2521   34.5435  -22.0379 C   0  0  0  0  0  0  0  0  0  0  0  0
  -17.9248   34.4906  -22.4003 C   0  0  0  0  0  0  0  0  0  0  0  0
  -17.4726   35.7578  -22.4508 N   0  0  0  0  0  0  0  0  0  0  0  0
  -18.4278   36.6152  -22.1435 N   0  0  0  0  0  0  0  0  0  0  0  0
  -18.3122   38.0530  -22.0932 C   0  0  0  0  0  0  0  0  0  0  0  0
  -17.6009   38.7827  -21.2154 N   0  0  0  0  0  0  0  0  0  0  0  0
  -17.7352   40.1026  -21.4831 C   0  0  0  0  0  0  0  0  0  0  0  0
  -17.2287   41.2533  -20.9021 C   0  0  0  0  0  0  0  0  0  0  0  0
  -17.5361   42.5024  -21.3909 C   0  0  0  0  0  0  0  0  0  0  0  0
  -16.8893   43.9411  -20.6469 Cl  0  0  0  0  0  0  0  0  0  0  0  0
  -18.3701   42.5632  -22.4842 C   0  0  0  0  0  0  0  0  0  0  0  0
  -18.7194   43.7806  -23.0255 O   0  0  0  0  0  0  0  0  0  0  0  0
  -17.9252   44.2833  -24.0868 C   0  0  0  0  0  0  0  0  0  0  0  0
  -16.6134   44.4347  -23.6616 F   0  0  0  0  0  0  0  0  0  0  0  0
  -18.3833   45.5354  -24.4961 F   0  0  0  0  0  0  0  0  0  0  0  0
  -18.0406   43.4215  -25.1459 F   0  0  0  0  0  0  0  0  0  0  0  0
  -18.8799   41.4230  -23.0701 C   0  0  0  0  0  0  0  0  0  0  0  0
  -18.5697   40.1862  -22.5786 C   0  0  0  0  0  0  0  0  0  0  0  0
  -18.9103   38.9175  -22.9346 N   0  0  0  0  0  0  0  0  0  0  0  0
  -19.5314   35.8837  -21.8862 C   0  0  0  0  0  0  0  0  0  0  0  0
  1  2  2  0
  2  3  1  0
  2  4  1  0
  4  5  1  0
  5  6  2  0
  6  7  1  0
  7  8  1  0
  8  9  2  0
  9 10  1  0
 10 11  2  0
 11 12  1  0
 12 13  1  0
 12 14  2  0
 14 15  1  0
 15 16  1  0
 16 17  1  0
 16 18  1  0
 16 19  1  0
 14 20  1  0
 20 21  2  0
 21 22  1  0
  7 23  1  0
 23  4  2  0
 22  8  1  0
 21 10  1  0
M  END
$$$$
