
     RDKit          3D

 12 12  0  0  0  0  0  0  0  0999 V2000
  -16.0258   37.5175  -22.8240 C   0  0  0  0  0  0  0  0  0  0  0  0
  -17.0526   37.2045  -21.7752 C   0  0  0  0  0  0  0  0  0  0  0  0
  -18.3846   37.7867  -22.1716 C   0  0  0  0  0  0  0  0  0  0  0  0
  -19.4538   36.8197  -21.8432 C   0  0  0  0  0  0  0  0  0  0  0  0
  -20.7937   37.1805  -21.6290 N   0  0  0  0  0  0  0  0  0  0  0  0
  -19.1482   35.6128  -21.7510 O   0  0  0  0  0  0  0  0  0  0  0  0
  -18.6151   39.0943  -21.6651 N   0  0  0  0  0  0  0  0  0  0  0  0
  -18.5305   39.4785  -20.2678 C   0  0  0  0  0  0  0  0  0  0  0  0
  -18.2752   40.9723  -20.3773 C   0  0  0  0  0  0  0  0  0  0  0  0
  -19.1954   41.3493  -21.5354 C   0  0  0  0  0  0  0  0  0  0  0  0
  -18.9628   40.2166  -22.4590 C   0  0  0  0  0  0  0  0  0  0  0  0
  -19.0487   40.2230  -23.6867 O   0  0  0  0  0  0  0  0  0  0  0  0
  1  2  1  0
  2  3  1  0
  3  4  1  0
  4  5  1  0
  4  6  2  0
  3  7  1  0
  7  8  1  0
  8  9  1  0
  9 10  1  0
 10 11  1  0
 11 12  2  0
 11  7  1  0
M  END
$$$$
