
     RDKit          3D

 28 32  0  0  0  0  0  0  0  0999 V2000
  -15.9690   35.7197  -20.2774 C   0  0  0  0  0  0  0  0  0  0  0  0
  -16.6624   36.3186  -21.5092 C   0  0  2  0  0  0  0  0  0  0  0  0
  -16.5917   35.2332  -22.5768 C   0  0  0  0  0  0  0  0  0  0  0  0
  -17.2763   35.7605  -23.8232 C   0  0  0  0  0  0  0  0  0  0  0  0
  -18.7552   35.5893  -23.6083 C   0  0  0  0  0  0  0  0  0  0  0  0
  -19.1788   34.6444  -22.7191 N   0  0  0  0  0  0  0  0  0  0  0  0
  -20.4678   34.4046  -22.4486 C   0  0  0  0  0  0  0  0  0  0  0  0
  -21.4578   35.1252  -23.0769 C   0  0  0  0  0  0  0  0  0  0  0  0
  -22.7799   34.9213  -22.8383 F   0  0  0  0  0  0  0  0  0  0  0  0
  -21.0636   36.0852  -23.9789 C   0  0  0  0  0  0  0  0  0  0  0  0
  -19.7119   36.3250  -24.2518 C   0  0  0  0  0  0  0  0  0  0  0  0
  -19.4527   37.3931  -25.2501 C   0  0  1  0  0  0  0  0  0  0  0  0
  -20.0717   37.0881  -26.5843 C   0  0  0  0  0  0  0  0  0  0  0  0
  -21.1244   38.1180  -26.8276 C   0  0  0  0  0  0  0  0  0  0  0  0
  -20.7798   39.2686  -25.9101 C   0  0  0  0  0  0  0  0  0  0  0  0
  -19.9768   38.6665  -24.8354 N   0  0  0  0  0  0  0  0  0  0  0  0
  -19.7175   39.2110  -23.5493 C   0  0  0  0  0  0  0  0  0  0  0  0
  -20.6941   39.9642  -22.8843 C   0  0  0  0  0  0  0  0  0  0  0  0
  -20.4199   40.4840  -21.6453 C   0  0  0  0  0  0  0  0  0  0  0  0
  -19.2318   40.2749  -21.0759 N   0  0  0  0  0  0  0  0  0  0  0  0
  -18.7036   40.6367  -19.9461 N   0  0  0  0  0  0  0  0  0  0  0  0
  -17.4290   40.1569  -19.8399 C   0  0  0  0  0  0  0  0  0  0  0  0
  -17.1762   39.4421  -21.0183 C   0  0  0  0  0  0  0  0  0  0  0  0
  -18.3156   39.5423  -21.7501 C   0  0  0  0  0  0  0  0  0  0  0  0
  -18.5307   39.0191  -22.9467 N   0  0  0  0  0  0  0  0  0  0  0  0
  -15.9483   38.7482  -21.3749 C   0  0  0  0  0  0  0  0  0  0  0  0
  -14.8122   39.3060  -21.1291 O   0  0  0  0  0  0  0  0  0  0  0  0
  -15.9092   37.4542  -21.9964 N   0  0  0  0  0  0  0  0  0  0  0  0
  2  1  1  1
  2  3  1  0
  3  4  1  0
  4  5  1  0
  5  6  2  0
  6  7  1  0
  7  8  2  0
  8  9  1  0
  8 10  1  0
 10 11  2  0
 11 12  1  0
 12 13  1  6
 13 14  1  0
 14 15  1  0
 15 16  1  0
 16 17  1  0
 17 18  1  0
 18 19  2  0
 19 20  1  0
 20 21  1  0
 21 22  2  0
 22 23  1  0
 23 24  2  0
 24 25  1  0
 23 26  1  0
 26 27  2  0
 26 28  1  0
 28  2  1  0
 11  5  1  0
 16 12  1  0
 25 17  2  0
 24 20  1  0
M  END
$$$$
