
     RDKit          3D

 33 35  0  0  0  0  0  0  0  0999 V2000
  -16.5056   18.0480  -29.6489 O   0  0  0  0  0  0  0  0  0  0  0  0
  -15.6188   18.9345  -29.6338 C   0  0  0  0  0  0  0  0  0  0  0  0
  -15.9115   20.3666  -29.5814 C   0  0  0  0  0  0  0  0  0  0  0  0
  -16.5007   20.8800  -30.8524 C   0  0  0  0  0  0  0  0  0  0  0  0
  -17.7214   21.7205  -30.6942 C   0  0  0  0  0  0  0  0  0  0  0  0
  -18.8723   21.2932  -31.5653 C   0  0  0  0  0  0  0  0  0  0  0  0
  -19.9087   22.3966  -31.6473 C   0  0  0  0  0  0  0  0  0  0  0  0
  -21.2600   21.8077  -31.3097 C   0  0  0  0  0  0  0  0  0  0  0  0
  -21.7652   20.8975  -32.3013 N   0  0  0  0  0  0  0  0  0  0  0  0
  -21.7848   19.4771  -32.1076 C   0  0  0  0  0  0  0  0  0  0  0  0
  -21.3845   19.0424  -31.0007 O   0  0  0  0  0  0  0  0  0  0  0  0
  -22.2356   18.5309  -33.1075 C   0  0  0  0  0  0  0  0  0  0  0  0
  -22.5014   17.2347  -32.7274 C   0  0  0  0  0  0  0  0  0  0  0  0
  -22.9233   16.3136  -33.5968 N   0  0  0  0  0  0  0  0  0  0  0  0
  -23.1031   16.6269  -34.8833 C   0  0  0  0  0  0  0  0  0  0  0  0
  -23.5684   15.5906  -35.7314 N   0  0  0  0  0  0  0  0  0  0  0  0
  -23.8082   15.8428  -37.1036 C   0  0  0  0  0  0  0  0  0  0  0  0
  -22.7222   16.1245  -37.9520 C   0  0  0  0  0  0  0  0  0  0  0  0
  -22.8784   16.3968  -39.2924 C   0  0  0  0  0  0  0  0  0  0  0  0
  -24.1286   16.4017  -39.8538 C   0  0  0  0  0  0  0  0  0  0  0  0
  -25.2178   16.1310  -39.0572 C   0  0  0  0  0  0  0  0  0  0  0  0
  -25.0334   15.8604  -37.7114 C   0  0  0  0  0  0  0  0  0  0  0  0
  -23.8032   14.2658  -35.2063 C   0  0  0  0  0  0  0  0  0  0  0  0
  -25.0944   13.7979  -35.1266 C   0  0  0  0  0  0  0  0  0  0  0  0
  -25.2936   12.5206  -34.6192 C   0  0  0  0  0  0  0  0  0  0  0  0
  -24.2282   11.7349  -34.2035 C   0  0  0  0  0  0  0  0  0  0  0  0
  -22.9379   12.2125  -34.2874 C   0  0  0  0  0  0  0  0  0  0  0  0
  -22.7459   13.4858  -34.7938 C   0  0  0  0  0  0  0  0  0  0  0  0
  -21.1056   14.0777  -34.8943 Cl  0  0  0  0  0  0  0  0  0  0  0  0
  -22.8471   17.8782  -35.2536 N   0  0  0  0  0  0  0  0  0  0  0  0
  -22.4225   18.8471  -34.4330 C   0  0  0  0  0  0  0  0  0  0  0  0
  -14.2663   18.4564  -29.6717 N   0  0  0  0  0  0  0  0  0  0  0  0
  -14.0012   17.1307  -29.7324 O   0  0  0  0  0  0  0  0  0  0  0  0
  1  2  2  0
  2  3  1  0
  3  4  1  0
  4  5  1  0
  5  6  1  0
  6  7  1  0
  7  8  1  0
  8  9  1  0
  9 10  1  0
 10 11  2  0
 10 12  1  0
 12 13  2  0
 13 14  1  0
 14 15  2  0
 15 16  1  0
 16 17  1  0
 17 18  2  0
 18 19  1  0
 19 20  2  0
 20 21  1  0
 21 22  2  0
 16 23  1  0
 23 24  2  0
 24 25  1  0
 25 26  2  0
 26 27  1  0
 27 28  2  0
 28 29  1  0
 15 30  1  0
 30 31  2  0
  2 32  1  0
 32 33  1  0
 31 12  1  0
 22 17  1  0
 28 23  1  0
M  END
$$$$
