
     RDKit          3D

 31 35  0  0  0  0  0  0  0  0999 V2000
  -27.7130    8.9471  -27.6301 C   0  0  0  0  0  0  0  0  0  0  0  0
  -27.3162   10.2960  -27.6420 N   0  0  0  0  0  0  0  0  0  0  0  0
  -26.9768   10.8559  -26.3734 C   0  0  0  0  0  0  0  0  0  0  0  0
  -27.8067   11.1832  -28.6093 C   0  0  0  0  0  0  0  0  0  0  0  0
  -28.0373   12.6065  -28.2082 C   0  0  0  0  0  0  0  0  0  0  0  0
  -28.3715   13.5375  -29.3116 C   0  0  0  0  0  0  0  0  0  0  0  0
  -28.7807   14.8407  -28.8028 N   0  0  0  0  0  0  0  0  0  0  0  0
  -27.9467   15.7631  -28.2985 C   0  0  0  0  0  0  0  0  0  0  0  0
  -28.7135   16.8677  -27.8953 C   0  0  0  0  0  0  0  0  0  0  0  0
  -28.2074   18.1008  -27.3039 C   0  0  0  0  0  0  0  0  0  0  0  0
  -27.4006   18.2395  -26.2549 C   0  0  0  0  0  0  0  0  0  0  0  0
  -26.8781   17.1109  -25.5121 C   0  0  0  0  0  0  0  0  0  0  0  0
  -25.5110   16.8866  -25.2682 C   0  0  0  0  0  0  0  0  0  0  0  0
  -25.4046   15.7599  -24.5558 N   0  0  0  0  0  0  0  0  0  0  0  0
  -26.5927   15.2177  -24.3086 C   0  0  0  0  0  0  0  0  0  0  0  0
  -26.9602   14.0744  -23.6282 C   0  0  0  0  0  0  0  0  0  0  0  0
  -28.3389   13.8086  -23.5751 C   0  0  0  0  0  0  0  0  0  0  0  0
  -29.2799   14.6286  -24.1613 C   0  0  0  0  0  0  0  0  0  0  0  0
  -28.8607   15.7572  -24.8288 C   0  0  0  0  0  0  0  0  0  0  0  0
  -27.5233   16.0618  -24.9077 C   0  0  0  0  0  0  0  0  0  0  0  0
  -27.1149   19.6240  -25.9603 C   0  0  0  0  0  0  0  0  0  0  0  0
  -26.4028   20.1553  -25.0626 O   0  0  0  0  0  0  0  0  0  0  0  0
  -27.8345   20.4013  -26.9441 N   0  0  0  0  0  0  0  0  0  0  0  0
  -28.4969   19.4542  -27.7563 C   0  0  0  0  0  0  0  0  0  0  0  0
  -29.2378   19.7589  -28.7411 O   0  0  0  0  0  0  0  0  0  0  0  0
  -30.0146   16.5405  -28.1921 C   0  0  0  0  0  0  0  0  0  0  0  0
  -31.2074   17.1908  -28.0524 C   0  0  0  0  0  0  0  0  0  0  0  0
  -32.4002   16.6069  -28.4585 C   0  0  0  0  0  0  0  0  0  0  0  0
  -32.3987   15.3375  -29.0214 C   0  0  0  0  0  0  0  0  0  0  0  0
  -31.2153   14.6602  -29.1750 C   0  0  0  0  0  0  0  0  0  0  0  0
  -30.0448   15.2606  -28.7637 C   0  0  0  0  0  0  0  0  0  0  0  0
  1  2  1  0
  2  3  1  0
  2  4  1  0
  4  5  1  0
  5  6  1  0
  6  7  1  0
  7  8  1  0
  8  9  2  0
  9 10  1  0
 10 11  2  0
 11 12  1  0
 12 13  2  0
 13 14  1  0
 14 15  1  0
 15 16  2  0
 16 17  1  0
 17 18  2  0
 18 19  1  0
 19 20  2  0
 11 21  1  0
 21 22  2  0
 21 23  1  0
 23 24  1  0
 24 25  2  0
  9 26  1  0
 26 27  2  0
 27 28  1  0
 28 29  2  0
 29 30  1  0
 30 31  2  0
 31  7  1  0
 24 10  1  0
 31 26  1  0
 20 12  1  0
 20 15  1  0
M  END
$$$$
