
     RDKit          3D

 26 28  0  0  0  0  0  0  0  0999 V2000
  -18.3529   43.2599  -18.6612 N   0  0  0  0  0  0  0  0  0  0  0  0
  -17.9612   42.8166  -19.9447 C   0  0  0  0  0  0  0  0  0  0  0  0
  -17.1213   43.5283  -20.7299 N   0  0  0  0  0  0  0  0  0  0  0  0
  -16.8018   43.0355  -21.9321 C   0  0  0  0  0  0  0  0  0  0  0  0
  -17.2921   41.8624  -22.3706 N   0  0  0  0  0  0  0  0  0  0  0  0
  -18.1369   41.1167  -21.6164 C   0  0  0  0  0  0  0  0  0  0  0  0
  -18.4676   41.6113  -20.3900 C   0  0  0  0  0  0  0  0  0  0  0  0
  -19.3120   40.6958  -19.8382 N   0  0  0  0  0  0  0  0  0  0  0  0
  -19.4865   39.6786  -20.7038 C   0  0  0  0  0  0  0  0  0  0  0  0
  -18.7592   39.9364  -21.8076 N   0  0  0  0  0  0  0  0  0  0  0  0
  -18.6652   39.0920  -22.9857 C   0  0  2  0  0  0  0  0  0  0  0  0
  -19.5880   38.0789  -23.0112 O   0  0  0  0  0  0  0  0  0  0  0  0
  -18.9667   36.9125  -23.3781 C   0  0  2  0  0  0  0  0  0  0  0  0
  -19.6732   35.6687  -22.8874 C   0  0  0  0  0  0  0  0  0  0  0  0
  -18.9047   35.1708  -21.3331 S   0  0  0  0  0  0  0  0  0  0  0  0
  -19.2127   33.4193  -20.9742 C   0  0  0  0  0  0  0  0  0  0  0  0
  -19.6665   32.7169  -22.2171 C   0  0  0  0  0  0  0  0  0  0  0  0
  -19.8851   31.2467  -22.0765 C   0  0  2  0  0  0  0  0  0  0  0  0
  -18.6569   30.6841  -21.5342 N   0  0  0  0  0  0  0  0  0  0  0  0
  -20.2159   30.5492  -23.3203 C   0  0  0  0  0  0  0  0  0  0  0  0
  -21.3346   29.9760  -23.4240 O   0  0  0  0  0  0  0  0  0  0  0  0
  -19.3533   30.4784  -24.4208 O   0  0  0  0  0  0  0  0  0  0  0  0
  -17.5727   37.0348  -22.7840 C   0  0  1  0  0  0  0  0  0  0  0  0
  -16.6715   36.1817  -23.4161 O   0  0  0  0  0  0  0  0  0  0  0  0
  -17.2828   38.4897  -23.0938 C   0  0  1  0  0  0  0  0  0  0  0  0
  -16.8610   38.6161  -24.4002 O   0  0  0  0  0  0  0  0  0  0  0  0
  1  2  1  0
  2  3  2  0
  3  4  1  0
  4  5  2  0
  5  6  1  0
  6  7  2  0
  7  8  1  0
  8  9  2  0
  9 10  1  0
 11 10  1  1
 11 12  1  0
 12 13  1  0
 13 14  1  1
 14 15  1  0
 15 16  1  0
 16 17  1  0
 17 18  1  0
 18 19  1  6
 18 20  1  0
 20 21  2  0
 20 22  1  0
 13 23  1  0
 23 24  1  6
 23 25  1  0
 25 26  1  6
  7  2  1  0
 25 11  1  0
 10  6  1  0
M  END
$$$$
