
     RDKit          3D

 21 24  0  0  0  0  0  0  0  0999 V2000
  -17.7648   39.2654  -18.9441 O   0  0  0  0  0  0  0  0  0  0  0  0
  -18.0780   38.5849  -19.9276 C   0  0  0  0  0  0  0  0  0  0  0  0
  -18.3368   37.1592  -19.8558 N   0  0  0  0  0  0  0  0  0  0  0  0
  -18.6678   36.6851  -21.1463 C   0  0  0  0  0  0  0  0  0  0  0  0
  -18.9856   35.3743  -21.5088 C   0  0  0  0  0  0  0  0  0  0  0  0
  -19.2775   35.1184  -22.8130 C   0  0  0  0  0  0  0  0  0  0  0  0
  -19.2516   36.1449  -23.7257 C   0  0  0  0  0  0  0  0  0  0  0  0
  -18.9346   37.4594  -23.3712 C   0  0  0  0  0  0  0  0  0  0  0  0
  -18.6415   37.7163  -22.0615 C   0  0  0  0  0  0  0  0  0  0  0  0
  -18.2706   38.9368  -21.3217 C   0  0  0  0  0  0  0  0  0  0  0  0
  -18.1256   40.1764  -21.8131 C   0  0  0  0  0  0  0  0  0  0  0  0
  -17.5970   41.2865  -21.1111 N   0  0  0  0  0  0  0  0  0  0  0  0
  -17.6152   42.4327  -22.0020 C   0  0  0  0  0  0  0  0  0  0  0  0
  -17.2167   43.7393  -21.8163 C   0  0  0  0  0  0  0  0  0  0  0  0
  -17.3556   44.6315  -22.8669 C   0  0  0  0  0  0  0  0  0  0  0  0
  -17.8714   44.2705  -24.0806 C   0  0  0  0  0  0  0  0  0  0  0  0
  -18.2708   42.9529  -24.2604 C   0  0  0  0  0  0  0  0  0  0  0  0
  -18.1341   42.0521  -23.2099 C   0  0  0  0  0  0  0  0  0  0  0  0
  -18.4822   40.6367  -23.1715 C   0  0  0  0  0  0  0  0  0  0  0  0
  -18.9837   39.9411  -24.0990 N   0  0  0  0  0  0  0  0  0  0  0  0
  -19.3540   40.4574  -25.2812 O   0  0  0  0  0  0  0  0  0  0  0  0
  1  2  2  0
  2  3  1  0
  3  4  1  0
  4  5  2  0
  5  6  1  0
  6  7  2  0
  7  8  1  0
  8  9  2  0
  9 10  1  0
 10 11  2  0
 11 12  1  0
 12 13  1  0
 13 14  2  0
 14 15  1  0
 15 16  2  0
 16 17  1  0
 17 18  2  0
 18 19  1  0
 19 20  2  0
 20 21  1  0
 10  2  1  0
 19 11  1  0
  9  4  1  0
 18 13  1  0
M  END
$$$$
