
     RDKit          3D

 28 30  0  0  0  0  0  0  0  0999 V2000
  -19.8127   33.5945  -22.2229 O   0  0  0  0  0  0  0  0  0  0  0  0
  -19.9135   34.8478  -22.2115 C   0  0  0  0  0  0  0  0  0  0  0  0
  -21.1854   35.3686  -22.3948 O   0  0  0  0  0  0  0  0  0  0  0  0
  -18.7435   35.6959  -22.0145 C   0  0  0  0  0  0  0  0  0  0  0  0
  -18.8530   37.0668  -22.1003 C   0  0  0  0  0  0  0  0  0  0  0  0
  -17.7553   37.9003  -21.9173 C   0  0  0  0  0  0  0  0  0  0  0  0
  -17.8739   39.3124  -22.0069 N   0  0  0  0  0  0  0  0  0  0  0  0
  -18.2835   39.9206  -23.0198 N   0  0  0  0  0  0  0  0  0  0  0  0
  -18.4158   41.3242  -23.1405 C   0  0  0  0  0  0  0  0  0  0  0  0
  -18.0023   42.1231  -22.0993 C   0  0  0  0  0  0  0  0  0  0  0  0
  -18.1087   43.4980  -22.1646 C   0  0  0  0  0  0  0  0  0  0  0  0
  -18.6265   44.1487  -23.2576 C   0  0  0  0  0  0  0  0  0  0  0  0
  -18.7808   45.8795  -23.4115 S   0  0  0  0  0  6  0  0  0  0  0  0
  -17.5798   46.4296  -24.1708 O   0  0  0  0  0  0  0  0  0  0  0  0
  -19.9757   46.1678  -24.2847 O   0  0  0  0  0  0  0  0  0  0  0  0
  -18.9311   46.6138  -21.9025 N   0  0  0  0  0  0  0  0  0  0  0  0
  -19.9796   46.4642  -20.9829 C   0  0  0  0  0  0  0  0  0  0  0  0
  -21.0755   45.6924  -21.2559 C   0  0  0  0  0  0  0  0  0  0  0  0
  -22.1228   45.5789  -20.3330 C   0  0  0  0  0  0  0  0  0  0  0  0
  -22.0715   46.2390  -19.1385 C   0  0  0  0  0  0  0  0  0  0  0  0
  -20.9581   47.0078  -18.8919 C   0  0  0  0  0  0  0  0  0  0  0  0
  -19.9705   47.1031  -19.7835 N   0  0  0  0  0  0  0  0  0  0  0  0
  -19.0434   43.3195  -24.3099 C   0  0  0  0  0  0  0  0  0  0  0  0
  -18.9343   41.9541  -24.2369 C   0  0  0  0  0  0  0  0  0  0  0  0
  -16.5212   37.3521  -21.6424 C   0  0  0  0  0  0  0  0  0  0  0  0
  -16.3858   35.9623  -21.5504 C   0  0  0  0  0  0  0  0  0  0  0  0
  -17.5032   35.1641  -21.7391 C   0  0  0  0  0  0  0  0  0  0  0  0
  -17.3799   33.7877  -21.6502 O   0  0  0  0  0  0  0  0  0  0  0  0
  1  2  2  0
  2  3  1  0
  2  4  1  0
  4  5  2  0
  5  6  1  0
  6  7  1  0
  7  8  2  0
  8  9  1  0
  9 10  2  0
 10 11  1  0
 11 12  2  0
 12 13  1  0
 13 14  2  0
 13 15  2  0
 13 16  1  0
 16 17  1  0
 17 18  2  0
 18 19  1  0
 19 20  2  0
 20 21  1  0
 21 22  2  0
 12 23  1  0
 23 24  2  0
  6 25  2  0
 25 26  1  0
 26 27  2  0
 27 28  1  0
 27  4  1  0
 24  9  1  0
 22 17  1  0
M  END
$$$$
