
     RDKit          3D

 38 41  0  0  0  0  0  0  0  0999 V2000
  -13.9249   19.2028  -36.8544 C   0  0  0  0  0  0  0  0  0  0  0  0
  -14.6720   17.9463  -37.3752 C   0  0  0  0  0  0  0  0  0  0  0  0
  -13.5726   17.0394  -37.8857 C   0  0  0  0  0  0  0  0  0  0  0  0
  -15.4003   18.4461  -38.6035 C   0  0  0  0  0  0  0  0  0  0  0  0
  -15.5121   17.3793  -36.3338 C   0  0  0  0  0  0  0  0  0  0  0  0
  -15.4697   16.1407  -36.1846 O   0  0  0  0  0  0  0  0  0  0  0  0
  -16.4214   18.0632  -35.4160 C   0  0  0  0  0  0  0  0  0  0  0  0
  -17.8026   17.7681  -35.4559 N   0  0  0  0  0  0  0  0  0  0  0  0
  -18.6095   18.3375  -36.5136 C   0  0  0  0  0  0  0  0  0  0  0  0
  -17.8693   18.9712  -37.3421 O   0  0  0  0  0  0  0  0  0  0  0  0
  -20.0119   18.3700  -36.8641 C   0  0  2  0  0  0  0  0  0  0  0  0
  -20.3074   19.7348  -37.3347 N   0  0  0  0  0  0  0  0  0  0  0  0
  -20.5661   20.0323  -38.6858 C   0  0  0  0  0  0  0  0  0  0  0  0
  -21.6401   19.5873  -39.2050 O   0  0  0  0  0  0  0  0  0  0  0  0
  -19.7263   20.7909  -39.5226 N   0  0  0  0  0  0  0  0  0  0  0  0
  -20.1054   22.0663  -40.0341 C   0  0  0  0  0  0  0  0  0  0  0  0
  -20.9395   22.8226  -39.2208 C   0  0  0  0  0  0  0  0  0  0  0  0
  -21.3474   24.0681  -39.6501 C   0  0  0  0  0  0  0  0  0  0  0  0
  -20.9174   24.5268  -40.8705 C   0  0  0  0  0  0  0  0  0  0  0  0
  -20.0872   23.7914  -41.6963 C   0  0  0  0  0  0  0  0  0  0  0  0
  -19.6727   24.3400  -42.9730 C   0  0  0  0  0  0  0  0  0  0  0  0
  -18.7617   23.7799  -43.6185 O   0  0  0  0  0  0  0  0  0  0  0  0
  -20.2701   25.4695  -43.4824 O   0  0  0  0  0  0  0  0  0  0  0  0
  -19.6883   22.5485  -41.2532 C   0  0  0  0  0  0  0  0  0  0  0  0
  -21.0108   18.0794  -35.8050 C   0  0  0  0  0  0  0  0  0  0  0  0
  -20.8063   16.7432  -35.2049 N   0  0  0  0  0  0  0  0  0  0  0  0
  -21.7655   15.7087  -35.4675 C   0  0  0  0  0  0  0  0  0  0  0  0
  -21.8012   14.4861  -34.6608 C   0  0  0  0  0  0  0  0  0  0  0  0
  -23.2225   13.9556  -34.4033 C   0  0  0  0  0  0  0  0  0  0  0  0
  -24.0276   13.8924  -35.6507 C   0  0  0  0  0  0  0  0  0  0  0  0
  -23.7463   14.9750  -36.6376 C   0  0  0  0  0  0  0  0  0  0  0  0
  -23.0923   16.2001  -35.9760 C   0  0  0  0  0  0  0  0  0  0  0  0
  -19.7044   16.4542  -34.3594 C   0  0  0  0  0  0  0  0  0  0  0  0
  -20.1074   15.6157  -33.3424 C   0  0  0  0  0  0  0  0  0  0  0  0
  -19.1788   15.2069  -32.4057 C   0  0  0  0  0  0  0  0  0  0  0  0
  -17.8795   15.6604  -32.5300 C   0  0  0  0  0  0  0  0  0  0  0  0
  -17.4558   16.5008  -33.5398 C   0  0  0  0  0  0  0  0  0  0  0  0
  -18.3863   16.8977  -34.4621 C   0  0  0  0  0  0  0  0  0  0  0  0
  1  2  1  0
  2  3  1  0
  2  4  1  0
  2  5  1  0
  5  6  2  0
  5  7  1  0
  7  8  1  0
  8  9  1  0
  9 10  2  0
  9 11  1  0
 11 12  1  1
 12 13  1  0
 13 14  2  0
 13 15  1  0
 15 16  1  0
 16 17  2  0
 17 18  1  0
 18 19  2  0
 19 20  1  0
 20 21  1  0
 21 22  2  0
 21 23  1  0
 20 24  2  0
 11 25  1  0
 25 26  1  0
 26 27  1  0
 27 28  1  0
 28 29  1  0
 29 30  1  0
 30 31  1  0
 31 32  1  0
 26 33  1  0
 33 34  2  0
 34 35  1  0
 35 36  2  0
 36 37  1  0
 37 38  2  0
 38  8  1  0
 24 16  1  0
 32 27  1  0
 38 33  1  0
M  END
$$$$
