
     RDKit          3D

 13 14  0  0  0  0  0  0  0  0999 V2000
  -21.4737   35.6421  -23.2955 O   0  0  0  0  0  0  0  0  0  0  0  0
  -20.2023   35.8106  -22.7829 C   0  0  0  0  0  0  0  0  0  0  0  0
  -19.5965   34.7281  -22.1827 C   0  0  0  0  0  0  0  0  0  0  0  0
  -20.4611   33.0289  -22.0464 Br  0  0  0  0  0  0  0  0  0  0  0  0
  -18.3230   34.9197  -21.6763 C   0  0  0  0  0  0  0  0  0  0  0  0
  -17.6950   36.1434  -21.7720 C   0  0  0  0  0  0  0  0  0  0  0  0
  -15.9461   36.4345  -21.0852 Br  0  0  0  0  0  0  0  0  0  0  0  0
  -18.3388   37.1943  -22.3794 C   0  0  0  0  0  0  0  0  0  0  0  0
  -17.7384   38.4537  -22.4984 C   0  0  0  0  0  0  0  0  0  0  0  0
  -18.3931   39.5002  -23.1092 C   0  0  0  0  0  0  0  0  0  0  0  0
  -19.6594   39.3008  -23.6101 C   0  0  0  0  0  0  0  0  0  0  0  0
  -20.2360   38.0921  -23.4961 N   0  0  0  0  0  0  0  0  0  0  0  0
  -19.6119   37.0594  -22.9030 C   0  0  0  0  0  0  0  0  0  0  0  0
  1  2  1  0
  2  3  2  0
  3  4  1  0
  3  5  1  0
  5  6  2  0
  6  7  1  0
  6  8  1  0
  8  9  2  0
  9 10  1  0
 10 11  2  0
 11 12  1  0
 12 13  2  0
 13  2  1  0
 13  8  1  0
M  END
$$$$
