
     RDKit          3D

 10  9  0  0  0  0  0  0  0  0999 V2000
  -28.0658   23.2061  -30.7799 C   0  0  0  0  0  0  0  0  0  0  0  0
  -28.8123   21.9931  -30.4327 C   0  0  0  0  0  0  0  0  0  0  0  0
  -29.0110   21.0288  -31.2002 O   0  0  0  0  0  0  0  0  0  0  0  0
  -29.3618   21.8913  -29.1166 N   0  0  0  0  0  0  0  0  0  0  0  0
  -30.1401   20.7680  -28.6691 C   0  0  1  0  0  0  0  0  0  0  0  0
  -30.5334   21.0479  -27.2232 C   0  0  0  0  0  0  0  0  0  0  0  0
  -29.0417   21.0164  -26.1595 S   0  0  0  0  0  0  0  0  0  0  0  0
  -31.2790   20.4526  -29.5128 C   0  0  0  0  0  0  0  0  0  0  0  0
  -31.5786   19.2671  -29.7762 O   0  0  0  0  0  0  0  0  0  0  0  0
  -32.0667   21.4508  -30.0506 O   0  0  0  0  0  0  0  0  0  0  0  0
  1  2  1  0
  2  3  2  0
  2  4  1  0
  4  5  1  0
  5  6  1  1
  6  7  1  0
  5  8  1  0
  8  9  2  0
  8 10  1  0
M  END
$$$$
