
     RDKit          3D

 35 37  0  0  0  0  0  0  0  0999 V2000
  -20.9942   21.8002  -41.1789 C   0  0  0  0  0  0  0  0  0  0  0  0
  -21.3056   21.5154  -39.7399 C   0  0  0  0  0  0  0  0  0  0  0  0
  -22.3107   22.5410  -39.2531 C   0  0  0  0  0  0  0  0  0  0  0  0
  -20.0735   21.5278  -38.8529 C   0  0  0  0  0  0  0  0  0  0  0  0
  -19.9073   20.3155  -38.1242 N   0  0  0  0  0  0  0  0  0  0  0  0
  -21.1245   19.6215  -37.8649 C   0  0  0  0  0  0  0  0  0  0  0  0
  -21.9161   20.2511  -36.7183 C   0  0  1  0  0  0  0  0  0  0  0  0
  -23.0466   20.8301  -37.2878 O   0  0  0  0  0  0  0  0  0  0  0  0
  -22.3439   19.1654  -35.7568 C   0  0  2  0  0  0  0  0  0  0  0  0
  -22.9343   17.9792  -36.4820 C   0  0  0  0  0  0  0  0  0  0  0  0
  -23.0552   16.7992  -35.5890 C   0  0  0  0  0  0  0  0  0  0  0  0
  -24.1923   16.5587  -34.8406 C   0  0  0  0  0  0  0  0  0  0  0  0
  -24.2977   15.4607  -34.0127 C   0  0  0  0  0  0  0  0  0  0  0  0
  -23.2532   14.5882  -33.9291 C   0  0  0  0  0  0  0  0  0  0  0  0
  -22.1132   14.8028  -34.6606 C   0  0  0  0  0  0  0  0  0  0  0  0
  -22.0211   15.8981  -35.4798 C   0  0  0  0  0  0  0  0  0  0  0  0
  -23.1647   19.6467  -34.6941 N   0  0  0  0  0  0  0  0  0  0  0  0
  -22.6492   20.0307  -33.4333 C   0  0  0  0  0  0  0  0  0  0  0  0
  -21.4471   19.8181  -33.1520 O   0  0  0  0  0  0  0  0  0  0  0  0
  -23.3990   20.6471  -32.4464 O   0  0  0  0  0  0  0  0  0  0  0  0
  -23.6597   20.0288  -31.2492 C   0  0  1  0  0  0  0  0  0  0  0  0
  -23.5520   20.9503  -30.0291 C   0  0  0  0  0  0  0  0  0  0  0  0
  -24.3994   20.1750  -29.0308 C   0  0  0  0  0  0  0  0  0  0  0  0
  -25.0401   19.1733  -29.7150 O   0  0  0  0  0  0  0  0  0  0  0  0
  -25.0626   19.5155  -31.0689 C   0  0  0  0  0  0  0  0  0  0  0  0
  -18.6460   19.3832  -38.7728 S   0  0  0  0  0  6  0  0  0  0  0  0
  -17.7628   20.1790  -39.7067 O   0  0  0  0  0  0  0  0  0  0  0  0
  -19.1386   18.2080  -39.5671 O   0  0  0  0  0  0  0  0  0  0  0  0
  -17.6228   18.7902  -37.4948 C   0  0  0  0  0  0  0  0  0  0  0  0
  -17.7861   17.5588  -36.8992 C   0  0  0  0  0  0  0  0  0  0  0  0
  -16.9162   17.1597  -35.8786 C   0  0  0  0  0  0  0  0  0  0  0  0
  -15.8916   17.9790  -35.4538 C   0  0  0  0  0  0  0  0  0  0  0  0
  -14.9859   17.6113  -34.4203 N   0  0  0  0  0  0  0  0  0  0  0  0
  -15.7310   19.2001  -36.0461 C   0  0  0  0  0  0  0  0  0  0  0  0
  -16.5911   19.5866  -37.0503 C   0  0  0  0  0  0  0  0  0  0  0  0
  1  2  1  0
  2  3  1  0
  2  4  1  0
  4  5  1  0
  5  6  1  0
  6  7  1  0
  7  8  1  6
  7  9  1  0
  9 10  1  6
 10 11  1  0
 11 12  2  0
 12 13  1  0
 13 14  2  0
 14 15  1  0
 15 16  2  0
  9 17  1  0
 17 18  1  0
 18 19  2  0
 18 20  1  0
 21 20  1  6
 21 22  1  0
 22 23  1  0
 23 24  1  0
 24 25  1  0
  5 26  1  0
 26 27  2  0
 26 28  2  0
 26 29  1  0
 29 30  2  0
 30 31  1  0
 31 32  2  0
 32 33  1  0
 32 34  1  0
 34 35  2  0
 16 11  1  0
 25 21  1  0
 35 29  1  0
M  END
$$$$
