
     RDKit          3D

 26 28  0  0  0  0  0  0  0  0999 V2000
   -5.7867   11.1137  -47.1741 C   0  0  0  0  0  0  0  0  0  0  0  0
   -4.4586   11.1226  -47.6594 N   0  0  0  0  0  0  0  0  0  0  0  0
   -4.3516   10.7017  -49.0199 C   0  0  0  0  0  0  0  0  0  0  0  0
   -3.3998   10.8014  -46.7948 C   0  0  0  0  0  0  0  0  0  0  0  0
   -2.3567    9.8459  -47.2636 C   0  0  0  0  0  0  0  0  0  0  0  0
   -1.0009   10.0215  -46.6668 C   0  0  0  0  0  0  0  0  0  0  0  0
   -1.0302    9.7396  -45.2470 N   0  0  0  0  0  0  0  0  0  0  0  0
   -0.6882    8.4923  -44.7072 C   0  0  0  0  0  0  0  0  0  0  0  0
   -0.5387    7.5046  -45.4633 O   0  0  0  0  0  0  0  0  0  0  0  0
   -0.4990    8.3094  -43.2705 C   0  0  0  0  0  0  0  0  0  0  0  0
    0.0280    9.3535  -42.4980 C   0  0  0  0  0  0  0  0  0  0  0  0
    0.2165    9.2083  -41.1442 C   0  0  0  0  0  0  0  0  0  0  0  0
   -0.1010    8.0403  -40.4905 C   0  0  0  0  0  0  0  0  0  0  0  0
    0.0924    7.8712  -39.0587 C   0  0  0  0  0  0  0  0  0  0  0  0
    1.1702    7.1232  -38.6391 C   0  0  0  0  0  0  0  0  0  0  0  0
    1.3513    6.9650  -37.2840 C   0  0  0  0  0  0  0  0  0  0  0  0
    2.4252    6.2193  -36.8579 O   0  0  0  0  0  0  0  0  0  0  0  0
    0.4932    7.5284  -36.3475 C   0  0  0  0  0  0  0  0  0  0  0  0
    0.6993    7.3538  -35.0183 N   0  0  0  0  0  0  0  0  0  0  0  0
   -0.1298    7.8981  -34.1093 C   0  0  0  0  0  0  0  0  0  0  0  0
   -1.2241    8.6565  -34.4830 C   0  0  0  0  0  0  0  0  0  0  0  0
   -1.4284    8.8307  -35.8400 C   0  0  0  0  0  0  0  0  0  0  0  0
   -0.5793    8.2732  -36.7835 C   0  0  0  0  0  0  0  0  0  0  0  0
   -0.7727    8.4401  -38.1461 C   0  0  0  0  0  0  0  0  0  0  0  0
   -0.6176    7.0008  -41.2155 C   0  0  0  0  0  0  0  0  0  0  0  0
   -0.8045    7.1589  -42.5864 C   0  0  0  0  0  0  0  0  0  0  0  0
  1  2  1  0
  2  3  1  0
  2  4  1  0
  4  5  1  0
  5  6  1  0
  6  7  1  0
  7  8  1  0
  8  9  2  0
  8 10  1  0
 10 11  2  0
 11 12  1  0
 12 13  2  0
 13 14  1  0
 14 15  2  0
 15 16  1  0
 16 17  1  0
 16 18  2  0
 18 19  1  0
 19 20  2  0
 20 21  1  0
 21 22  2  0
 22 23  1  0
 23 24  2  0
 13 25  1  0
 25 26  2  0
 26 10  1  0
 24 14  1  0
 23 18  1  0
M  END
$$$$
