
     RDKit          3D

 25 28  0  0  0  0  0  0  0  0999 V2000
  -20.2744   41.4023  -21.9844 C   0  0  0  0  0  0  0  0  0  0  0  0
  -19.2126   40.2907  -21.8455 C   0  0  0  0  0  0  0  0  0  0  0  0
  -19.2990   39.9249  -20.3552 C   0  0  0  0  0  0  0  0  0  0  0  0
  -19.1969   41.2471  -19.5793 C   0  0  0  0  0  0  0  0  0  0  0  0
  -17.9862   42.0010  -19.9429 C   0  0  0  0  0  0  0  0  0  0  0  0
  -17.5103   42.8397  -19.1288 O   0  0  0  0  0  0  0  0  0  0  0  0
  -17.3709   41.7662  -21.2183 C   0  0  0  0  0  0  0  0  0  0  0  0
  -17.9250   40.9875  -22.0901 C   0  0  0  0  0  0  0  0  0  0  0  0
  -17.2985   40.7257  -23.4346 C   0  0  0  0  0  0  0  0  0  0  0  0
  -17.0774   39.2278  -23.4304 C   0  0  0  0  0  0  0  0  0  0  0  0
  -18.4066   38.5022  -23.4758 C   0  0  0  0  0  0  0  0  0  0  0  0
  -19.5035   39.1584  -22.7476 C   0  0  0  0  0  0  0  0  0  0  0  0
  -20.3108   38.1283  -21.9321 C   0  0  0  0  0  0  0  0  0  0  0  0
  -20.5868   36.9240  -22.7849 C   0  0  0  0  0  0  0  0  0  0  0  0
  -19.3305   36.1781  -23.0692 C   0  0  0  0  0  0  0  0  0  0  0  0
  -19.5373   35.5326  -24.4519 C   0  0  0  0  0  0  0  0  0  0  0  0
  -18.1201   37.0730  -23.1710 C   0  0  0  0  0  0  0  0  0  0  0  0
  -17.2606   36.7978  -21.9809 C   0  0  0  0  0  0  0  0  0  0  0  0
  -17.4917   35.2906  -21.8335 C   0  0  0  0  0  0  0  0  0  0  0  0
  -19.0302   35.1862  -21.9996 C   0  0  1  0  0  0  0  0  0  0  0  0
  -19.5117   35.5029  -20.7392 O   0  0  0  0  0  0  0  0  0  0  0  0
  -19.4134   33.8111  -22.3277 C   0  0  0  0  0  0  0  0  0  0  0  0
  -18.5791   33.0550  -22.7918 O   0  0  0  0  0  0  0  0  0  0  0  0
  -20.7611   33.2503  -22.1367 C   0  0  0  0  0  0  0  0  0  0  0  0
  -20.9011   31.9168  -22.4906 O   0  0  0  0  0  0  0  0  0  0  0  0
  1  2  1  0
  2  3  1  0
  3  4  1  0
  4  5  1  0
  5  6  2  0
  5  7  1  0
  7  8  2  0
  8  9  1  0
  9 10  1  0
 10 11  1  0
 11 12  1  0
 12 13  1  0
 13 14  1  0
 14 15  1  0
 15 16  1  0
 15 17  1  0
 17 18  1  0
 18 19  1  0
 19 20  1  0
 20 21  1  1
 20 22  1  0
 22 23  2  0
 22 24  1  0
 24 25  1  0
  8  2  1  0
 17 11  1  0
 12  2  1  0
 20 15  1  0
M  END
$$$$
