
     RDKit          3D

 20 20  0  0  0  0  0  0  0  0999 V2000
  -27.9940   19.5179  -27.8074 C   0  0  0  0  0  0  0  0  0  0  0  0
  -26.6210   18.9693  -28.0733 C   0  0  0  0  0  0  0  0  0  0  0  0
  -25.8393   20.0410  -28.6254 O   0  0  0  0  0  0  0  0  0  0  0  0
  -24.7958   19.7765  -29.4879 C   0  0  0  0  0  0  0  0  0  0  0  0
  -24.1940   18.6826  -29.3679 O   0  0  0  0  0  0  0  0  0  0  0  0
  -24.3586   20.6575  -30.4999 N   0  0  0  0  0  0  0  0  0  0  0  0
  -22.9326   20.9529  -30.7244 C   0  0  0  0  0  0  0  0  0  0  0  0
  -22.3448   19.9445  -31.6438 C   0  0  0  0  0  0  0  0  0  0  0  0
  -21.1156   20.3746  -32.3685 C   0  0  0  0  0  0  0  0  0  0  0  0
  -20.8387   19.4722  -33.5005 C   0  0  0  0  0  0  0  0  0  0  0  0
  -20.7666   19.9428  -34.6552 O   0  0  0  0  0  0  0  0  0  0  0  0
  -20.6633   18.0974  -33.2375 N   0  0  0  0  0  0  0  0  0  0  0  0
  -19.7506   17.3199  -34.0203 C   0  0  0  0  0  0  0  0  0  0  0  0
  -19.2886   16.1421  -33.2416 C   0  0  0  0  0  0  0  0  0  0  0  0
  -17.9407   16.3190  -32.6476 C   0  0  0  0  0  0  0  0  0  0  0  0
  -17.3592   15.3729  -31.8524 C   0  0  0  0  0  0  0  0  0  0  0  0
  -16.1132   15.5361  -31.3019 C   0  0  0  0  0  0  0  0  0  0  0  0
  -15.4123   16.7008  -31.5571 C   0  0  0  0  0  0  0  0  0  0  0  0
  -15.9729   17.6737  -32.3557 C   0  0  0  0  0  0  0  0  0  0  0  0
  -17.2409   17.4789  -32.9008 C   0  0  0  0  0  0  0  0  0  0  0  0
  1  2  1  0
  2  3  1  0
  3  4  1  0
  4  5  2  0
  4  6  1  0
  6  7  1  0
  7  8  1  0
  8  9  1  0
  9 10  1  0
 10 11  2  0
 10 12  1  0
 12 13  1  0
 13 14  1  0
 14 15  1  0
 15 16  2  0
 16 17  1  0
 17 18  2  0
 18 19  1  0
 19 20  2  0
 20 15  1  0
M  END
$$$$
