
     RDKit          3D

 16 18  0  0  0  0  0  0  0  0999 V2000
  -19.4564   43.6121  -24.0685 C   0  0  0  0  0  0  0  0  0  0  0  0
  -20.0998   42.4293  -24.3387 C   0  0  0  0  0  0  0  0  0  0  0  0
  -19.6081   41.2376  -23.8603 C   0  0  0  0  0  0  0  0  0  0  0  0
  -18.4726   41.2671  -23.1165 C   0  0  0  0  0  0  0  0  0  0  0  0
  -18.0150   39.9270  -22.6415 C   0  0  0  0  0  0  0  0  0  0  0  0
  -17.1602   39.3759  -22.0969 N   0  0  0  0  0  0  0  0  0  0  0  0
  -17.0220   38.1039  -21.8011 C   0  0  0  0  0  0  0  0  0  0  0  0
  -18.0069   37.2926  -22.1744 C   0  0  0  0  0  0  0  0  0  0  0  0
  -18.2836   35.8632  -22.0682 C   0  0  0  0  0  0  0  0  0  0  0  0
  -18.7454   35.0611  -23.0928 C   0  0  0  0  0  0  0  0  0  0  0  0
  -18.8709   33.7930  -22.5740 C   0  0  0  0  0  0  0  0  0  0  0  0
  -18.5019   33.8147  -21.2854 N   0  0  0  0  0  0  0  0  0  0  0  0
  -18.1566   35.0566  -21.0067 N   0  0  0  0  0  0  0  0  0  0  0  0
  -19.1853   38.4809  -23.0004 S   0  0  0  0  0  0  0  0  0  0  0  0
  -17.8098   42.4311  -22.8312 C   0  0  0  0  0  0  0  0  0  0  0  0
  -18.3141   43.6270  -23.3184 C   0  0  0  0  0  0  0  0  0  0  0  0
  1  2  2  0
  2  3  1  0
  3  4  2  0
  4  5  1  0
  5  6  2  0
  6  7  1  0
  7  8  2  0
  8  9  1  0
  9 10  1  0
 10 11  2  0
 11 12  1  0
 12 13  1  0
  8 14  1  0
  4 15  1  0
 15 16  2  0
 16  1  1  0
 14  5  1  0
 13  9  2  0
M  END
$$$$
