
     RDKit          3D

 22 23  0  0  0  0  0  0  0  0999 V2000
  -33.2288   16.3138  -27.4492 C   0  0  0  0  0  0  0  0  0  0  0  0
  -31.9117   17.0315  -27.3138 C   0  0  0  0  0  0  0  0  0  0  0  0
  -31.6469   17.2601  -25.8334 C   0  0  0  0  0  0  0  0  0  0  0  0
  -30.8208   16.3721  -27.8724 O   0  0  0  0  0  0  0  0  0  0  0  0
  -29.5032   16.5076  -27.5942 C   0  0  0  0  0  0  0  0  0  0  0  0
  -28.9490   17.7281  -27.2964 C   0  0  0  0  0  0  0  0  0  0  0  0
  -27.5970   17.8580  -27.0126 C   0  0  0  0  0  0  0  0  0  0  0  0
  -26.7689   16.7341  -27.0262 C   0  0  0  0  0  0  0  0  0  0  0  0
  -25.3696   16.8670  -26.7033 C   0  0  0  0  0  0  0  0  0  0  0  0
  -24.6922   17.6773  -27.4310 O   0  0  0  0  0  0  0  0  0  0  0  0
  -24.6381   16.1954  -25.6588 C   0  0  0  0  0  0  0  0  0  0  0  0
  -23.5036   15.4501  -25.9288 C   0  0  0  0  0  0  0  0  0  0  0  0
  -22.7965   14.7989  -24.9133 C   0  0  0  0  0  0  0  0  0  0  0  0
  -23.2034   14.8750  -23.6060 C   0  0  0  0  0  0  0  0  0  0  0  0
  -22.3317   14.0682  -22.3025 Cl  0  0  0  0  0  0  0  0  0  0  0  0
  -24.3392   15.6195  -23.3271 C   0  0  0  0  0  0  0  0  0  0  0  0
  -25.0366   16.2635  -24.3343 C   0  0  0  0  0  0  0  0  0  0  0  0
  -27.3083   15.5136  -27.3212 C   0  0  0  0  0  0  0  0  0  0  0  0
  -28.6686   15.4139  -27.6018 C   0  0  0  0  0  0  0  0  0  0  0  0
  -32.0732   18.3351  -28.0175 C   0  0  0  0  0  0  0  0  0  0  0  0
  -32.7156   19.2944  -27.4994 O   0  0  0  0  0  0  0  0  0  0  0  0
  -31.5229   18.5307  -29.2638 O   0  0  0  0  0  0  0  0  0  0  0  0
  1  2  1  0
  2  3  1  0
  2  4  1  0
  4  5  1  0
  5  6  2  0
  6  7  1  0
  7  8  2  0
  8  9  1  0
  9 10  2  0
  9 11  1  0
 11 12  2  0
 12 13  1  0
 13 14  2  0
 14 15  1  0
 14 16  1  0
 16 17  2  0
  8 18  1  0
 18 19  2  0
  2 20  1  0
 20 21  2  0
 20 22  1  0
 19  5  1  0
 17 11  1  0
M  END
$$$$
