
     RDKit          3D

 17 18  0  0  0  0  0  0  0  0999 V2000
  -19.3960   44.3224  -24.8198 C   0  0  0  0  0  0  0  0  0  0  0  0
  -18.4882   44.0015  -23.8192 O   0  0  0  0  0  0  0  0  0  0  0  0
  -18.4633   42.8665  -23.0383 C   0  0  0  0  0  0  0  0  0  0  0  0
  -18.8095   41.6238  -23.5712 C   0  0  0  0  0  0  0  0  0  0  0  0
  -18.7925   40.4852  -22.8119 C   0  0  0  0  0  0  0  0  0  0  0  0
  -19.1107   39.1637  -23.3226 C   0  0  0  0  0  0  0  0  0  0  0  0
  -18.6450   38.1303  -22.6894 C   0  0  0  0  0  0  0  0  0  0  0  0
  -18.5833   36.4601  -23.3027 S   0  0  0  0  0  0  0  0  0  0  0  0
  -17.8161   35.7724  -21.8201 C   0  0  0  0  0  0  0  0  0  0  0  0
  -17.3952   34.0318  -21.6403 S   0  0  0  0  0  0  0  0  0  0  0  0
  -17.6652   36.7296  -21.0311 N   0  0  0  0  0  0  0  0  0  0  0  0
  -18.0625   38.0072  -21.3789 C   0  0  0  0  0  0  0  0  0  0  0  0
  -17.9275   39.0155  -20.5987 O   0  0  0  0  0  0  0  0  0  0  0  0
  -18.4220   40.5909  -21.4888 C   0  0  0  0  0  0  0  0  0  0  0  0
  -18.0707   41.8108  -20.9236 C   0  0  0  0  0  0  0  0  0  0  0  0
  -18.0925   42.9376  -21.6953 C   0  0  0  0  0  0  0  0  0  0  0  0
  -17.7480   44.1540  -21.1555 O   0  0  0  0  0  0  0  0  0  0  0  0
  1  2  1  0
  2  3  1  0
  3  4  2  0
  4  5  1  0
  5  6  1  0
  6  7  2  0
  7  8  1  0
  8  9  1  0
  9 10  1  0
  9 11  2  0
 11 12  1  0
 12 13  2  0
  5 14  2  0
 14 15  1  0
 15 16  2  0
 16 17  1  0
 16  3  1  0
 12  7  1  0
M  END
$$$$
