
     RDKit          3D

 32 35  0  0  0  0  0  0  0  0999 V2000
  -32.4152   17.0553  -26.5224 C   0  0  0  0  0  0  0  0  0  0  0  0
  -31.8437   18.3450  -26.4368 O   0  0  0  0  0  0  0  0  0  0  0  0
  -30.4859   18.4633  -26.7397 C   0  0  0  0  0  0  0  0  0  0  0  0
  -29.6068   17.3997  -26.5980 C   0  0  0  0  0  0  0  0  0  0  0  0
  -28.2692   17.5393  -26.9032 C   0  0  0  0  0  0  0  0  0  0  0  0
  -27.3897   16.5235  -26.7758 N   0  0  0  0  0  0  0  0  0  0  0  0
  -26.0821   16.6434  -27.0692 C   0  0  0  0  0  0  0  0  0  0  0  0
  -25.6143   17.8595  -27.5217 C   0  0  0  0  0  0  0  0  0  0  0  0
  -26.5017   18.9069  -27.6570 C   0  0  0  0  0  0  0  0  0  0  0  0
  -26.1052   20.1636  -28.1074 O   0  0  0  0  0  0  0  0  0  0  0  0
  -25.4050   20.2240  -29.3085 C   0  0  0  0  0  0  0  0  0  0  0  0
  -25.9782   19.7968  -30.5021 C   0  0  0  0  0  0  0  0  0  0  0  0
  -25.2796   19.8588  -31.6903 C   0  0  0  0  0  0  0  0  0  0  0  0
  -23.9756   20.3520  -31.7324 C   0  0  0  0  0  0  0  0  0  0  0  0
  -23.2381   20.4239  -32.9496 N   0  0  0  0  0  0  0  0  0  0  0  0
  -23.0747   19.2137  -33.7071 C   0  0  0  0  0  0  0  0  0  0  0  0
  -23.6316   18.1367  -33.3650 O   0  0  0  0  0  0  0  0  0  0  0  0
  -22.2724   19.2081  -34.8706 N   0  0  0  0  0  0  0  0  0  0  0  0
  -22.1762   18.0756  -35.7283 C   0  0  0  0  0  0  0  0  0  0  0  0
  -21.4468   18.0053  -36.8941 C   0  0  0  0  0  0  0  0  0  0  0  0
  -21.6448   16.7246  -37.3921 C   0  0  0  0  0  0  0  0  0  0  0  0
  -21.0207   16.2402  -38.6555 C   0  0  0  0  0  0  0  0  0  0  0  0
  -22.4351   16.1068  -36.5639 O   0  0  0  0  0  0  0  0  0  0  0  0
  -22.7609   16.8870  -35.5739 N   0  0  0  0  0  0  0  0  0  0  0  0
  -23.4018   20.7759  -30.5591 C   0  0  0  0  0  0  0  0  0  0  0  0
  -21.7593   21.4022  -30.5839 Cl  0  0  0  0  0  0  0  0  0  0  0  0
  -24.1101   20.7091  -29.3772 C   0  0  0  0  0  0  0  0  0  0  0  0
  -27.8569   18.7772  -27.3512 C   0  0  0  0  0  0  0  0  0  0  0  0
  -28.7300   19.8364  -27.4927 C   0  0  0  0  0  0  0  0  0  0  0  0
  -30.0675   19.6986  -27.1881 C   0  0  0  0  0  0  0  0  0  0  0  0
  -30.9617   20.7593  -27.3259 O   0  0  0  0  0  0  0  0  0  0  0  0
  -30.9975   21.4889  -28.5492 C   0  0  0  0  0  0  0  0  0  0  0  0
  1  2  1  0
  2  3  1  0
  3  4  2  0
  4  5  1  0
  5  6  2  0
  6  7  1  0
  7  8  2  0
  8  9  1  0
  9 10  1  0
 10 11  1  0
 11 12  2  0
 12 13  1  0
 13 14  2  0
 14 15  1  0
 15 16  1  0
 16 17  2  0
 16 18  1  0
 18 19  1  0
 19 20  1  0
 20 21  2  0
 21 22  1  0
 21 23  1  0
 23 24  1  0
 14 25  1  0
 25 26  1  0
 25 27  2  0
  9 28  2  0
 28 29  1  0
 29 30  2  0
 30 31  1  0
 31 32  1  0
 30  3  1  0
 28  5  1  0
 27 11  1  0
 24 19  2  0
M  END
$$$$
