
     RDKit          3D

 14 14  0  0  0  0  0  0  0  0999 V2000
  -17.0552   38.0346  -21.5979 N   0  0  0  0  0  0  0  0  0  0  0  0
  -18.1940   38.4642  -22.4017 C   0  0  1  0  0  0  0  0  0  0  0  0
  -18.4315   37.3824  -23.4192 C   0  0  0  0  0  0  0  0  0  0  0  0
  -18.7777   36.0789  -22.8696 C   0  0  0  0  0  0  0  0  0  0  0  0
  -20.0643   35.6657  -22.5954 C   0  0  0  0  0  0  0  0  0  0  0  0
  -20.3231   34.3982  -22.0691 C   0  0  0  0  0  0  0  0  0  0  0  0
  -19.3001   33.5281  -21.8102 C   0  0  0  0  0  0  0  0  0  0  0  0
  -19.5961   32.2607  -21.2807 O   0  0  0  0  0  0  0  0  0  0  0  0
  -18.0110   33.9226  -22.0771 C   0  0  0  0  0  0  0  0  0  0  0  0
  -16.4460   32.5684  -21.6718 I   0  0  0  0  0  0  0  0  0  0  0  0
  -17.7654   35.1766  -22.5969 C   0  0  0  0  0  0  0  0  0  0  0  0
  -19.3285   38.6881  -21.4887 C   0  0  0  0  0  0  0  0  0  0  0  0
  -19.2252   38.5372  -20.2518 O   0  0  0  0  0  0  0  0  0  0  0  0
  -20.5531   39.0777  -21.9964 O   0  0  0  0  0  0  0  0  0  0  0  0
  2  1  1  1
  2  3  1  0
  3  4  1  0
  4  5  2  0
  5  6  1  0
  6  7  2  0
  7  8  1  0
  7  9  1  0
  9 10  1  0
  9 11  2  0
  2 12  1  0
 12 13  2  0
 12 14  1  0
 11  4  1  0
M  END
$$$$
