
     RDKit          3D

 30 32  0  0  0  0  0  0  0  0999 V2000
  -21.7599   33.8050  -21.2482 C   0  0  0  0  0  0  0  0  0  0  0  0
  -20.6829   33.4017  -22.2202 C   0  0  0  0  0  0  0  0  0  0  0  0
  -20.2133   31.9695  -21.9892 C   0  0  0  0  0  0  0  0  0  0  0  0
  -19.5507   34.3549  -22.2138 C   0  0  0  0  0  0  0  0  0  0  0  0
  -18.4411   34.2298  -21.4089 C   0  0  0  0  0  0  0  0  0  0  0  0
  -17.6249   35.2556  -21.6576 N   0  0  0  0  0  0  0  0  0  0  0  0
  -18.1959   36.0136  -22.5932 N   0  0  0  0  0  0  0  0  0  0  0  0
  -17.7913   37.1492  -23.1851 C   0  0  0  0  0  0  0  0  0  0  0  0
  -16.5432   37.7253  -22.8171 N   0  0  0  0  0  0  0  0  0  0  0  0
  -16.4390   38.6198  -21.6589 C   0  0  0  0  0  0  0  0  0  0  0  0
  -17.3531   39.7691  -21.7902 C   0  0  0  0  0  0  0  0  0  0  0  0
  -16.9863   40.9485  -22.3872 C   0  0  0  0  0  0  0  0  0  0  0  0
  -17.8878   42.0064  -22.4916 C   0  0  0  0  0  0  0  0  0  0  0  0
  -19.1521   41.8626  -21.9912 C   0  0  0  0  0  0  0  0  0  0  0  0
  -19.5296   40.6836  -21.3905 C   0  0  0  0  0  0  0  0  0  0  0  0
  -18.6381   39.6359  -21.2866 C   0  0  0  0  0  0  0  0  0  0  0  0
  -18.6015   37.7484  -24.1528 C   0  0  0  0  0  0  0  0  0  0  0  0
  -19.8162   37.2184  -24.5331 C   0  0  0  0  0  0  0  0  0  0  0  0
  -20.6535   37.8102  -25.5187 N   0  0  0  0  0  0  0  0  0  0  0  0
  -20.1894   39.0026  -26.1628 C   0  0  0  0  0  0  0  0  0  0  0  0
  -21.1283   39.5746  -27.1754 C   0  0  1  0  0  0  0  0  0  0  0  0
  -21.4622   38.6764  -28.3113 C   0  0  0  0  0  0  0  0  0  0  0  0
  -22.7154   39.2422  -28.9879 C   0  0  0  0  0  0  0  0  0  0  0  0
  -22.7652   40.6776  -28.9160 N   0  0  0  0  0  0  0  0  0  0  0  0
  -22.8874   41.1923  -27.5861 C   0  0  0  0  0  0  0  0  0  0  0  0
  -22.3883   40.1508  -26.5750 C   0  0  2  0  0  0  0  0  0  0  0  0
  -22.1236   40.7540  -25.3472 O   0  0  0  0  0  0  0  0  0  0  0  0
  -20.1678   36.0679  -23.8958 N   0  0  0  0  0  0  0  0  0  0  0  0
  -19.3808   35.4970  -22.9640 C   0  0  0  0  0  0  0  0  0  0  0  0
  -20.3753   37.9250  -24.6827 Cl  0  0  0  0  0  0  0  0  0  0  0  0
  1  2  1  0
  2  3  1  0
  2  4  1  0
  4  5  1  0
  5  6  2  0
  6  7  1  0
  7  8  1  0
  8  9  1  0
  9 10  1  0
 10 11  1  0
 11 12  2  0
 12 13  1  0
 13 14  2  0
 14 15  1  0
 15 16  2  0
  8 17  2  0
 17 18  1  0
 18 19  1  0
 19 20  1  0
 21 20  1  1
 21 22  1  0
 22 23  1  0
 23 24  1  0
 24 25  1  0
 25 26  1  0
 26 27  1  1
 18 28  2  0
 28 29  1  0
 29  4  2  0
 29  7  1  0
 16 11  1  0
 26 21  1  0
M  END
$$$$
