
     RDKit          3D

 36 37  0  0  0  0  0  0  0  0999 V2000
  -27.1835   17.8871  -25.0036 C   0  0  0  0  0  0  0  0  0  0  0  0
  -28.6167   17.5656  -24.8341 C   0  0  0  0  0  0  0  0  0  0  0  0
  -29.0384   17.0487  -23.6036 C   0  0  0  0  0  0  0  0  0  0  0  0
  -30.3568   16.7318  -23.4174 C   0  0  0  0  0  0  0  0  0  0  0  0
  -30.8609   16.2009  -22.1922 N   0  0  0  0  0  0  0  0  0  0  0  0
  -31.2313   16.9375  -24.4650 C   0  0  0  0  0  0  0  0  0  0  0  0
  -32.5612   16.6234  -24.2821 C   0  0  0  0  0  0  0  0  0  0  0  0
  -33.4539   16.8233  -25.3111 C   0  0  0  0  0  0  0  0  0  0  0  0
  -33.0264   17.3303  -26.5082 C   0  0  0  0  0  0  0  0  0  0  0  0
  -31.6731   17.6466  -26.6849 C   0  0  0  0  0  0  0  0  0  0  0  0
  -30.7644   17.4572  -25.6785 C   0  0  0  0  0  0  0  0  0  0  0  0
  -29.4596   17.7705  -25.8627 N   0  0  0  0  0  4  0  0  0  0  0  0
  -28.9911   18.2849  -27.1166 C   0  0  0  0  0  0  0  0  0  0  0  0
  -29.0942   19.7823  -27.2400 C   0  0  0  0  0  0  0  0  0  0  0  0
  -28.5631   20.1972  -28.6150 C   0  0  0  0  0  0  0  0  0  0  0  0
  -28.6607   21.7080  -28.7555 C   0  0  0  0  0  0  0  0  0  0  0  0
  -28.1152   22.0458  -30.1458 C   0  0  0  0  0  0  0  0  0  0  0  0
  -28.1786   23.5370  -30.3629 C   0  0  0  0  0  0  0  0  0  0  0  0
  -27.6647   23.8889  -31.7335 C   0  0  0  0  0  0  0  0  0  0  0  0
  -26.2535   23.4462  -31.8671 C   0  0  0  0  0  0  0  0  0  0  0  0
  -25.6157   23.7580  -33.2092 C   0  0  0  0  0  0  0  0  0  0  0  0
  -25.5792   25.2400  -33.5153 C   0  0  0  0  0  0  0  0  0  0  0  0
  -24.9573   25.4237  -34.7877 N   0  0  0  0  0  4  0  0  0  0  0  0
  -23.6335   25.6642  -34.8012 C   0  0  0  0  0  0  0  0  0  0  0  0
  -22.8555   25.7717  -33.5507 C   0  0  0  0  0  0  0  0  0  0  0  0
  -22.9912   25.8301  -36.0133 C   0  0  0  0  0  0  0  0  0  0  0  0
  -23.6949   25.7521  -37.2098 C   0  0  0  0  0  0  0  0  0  0  0  0
  -23.0723   25.9164  -38.4642 N   0  0  0  0  0  0  0  0  0  0  0  0
  -25.0484   25.5044  -37.1455 C   0  0  0  0  0  0  0  0  0  0  0  0
  -25.7897   25.4146  -38.3017 C   0  0  0  0  0  0  0  0  0  0  0  0
  -27.1419   25.1628  -38.2229 C   0  0  0  0  0  0  0  0  0  0  0  0
  -27.7695   24.9994  -37.0317 C   0  0  0  0  0  0  0  0  0  0  0  0
  -27.0361   25.0873  -35.8613 C   0  0  0  0  0  0  0  0  0  0  0  0
  -25.6871   25.3379  -35.9129 C   0  0  0  0  0  0  0  0  0  0  0  0
  -27.6266   21.6404  -30.4448 Cl  0  0  0  0  0 15  0  0  0  0  0  0
  -27.6266   21.6404  -30.4448 Cl  0  0  0  0  0 15  0  0  0  0  0  0
  1  2  1  0
  2  3  2  0
  3  4  1  0
  4  5  1  0
  4  6  2  0
  6  7  1  0
  7  8  2  0
  8  9  1  0
  9 10  2  0
 10 11  1  0
 11 12  2  0
 12 13  1  0
 13 14  1  0
 14 15  1  0
 15 16  1  0
 16 17  1  0
 17 18  1  0
 18 19  1  0
 19 20  1  0
 20 21  1  0
 21 22  1  0
 22 23  1  0
 23 24  2  0
 24 25  1  0
 24 26  1  0
 26 27  2  0
 27 28  1  0
 27 29  1  0
 29 30  2  0
 30 31  1  0
 31 32  2  0
 32 33  1  0
 33 34  2  0
 12  2  1  0
 34 23  1  0
 11  6  1  0
 34 29  1  0
M  CHG  4  12   1  23   1  35  -1  36  -1
M  END
$$$$
