
     RDKit          3D

 22 24  0  0  0  0  0  0  0  0999 V2000
  -10.2948   45.3775  -16.6543 C   0  0  0  0  0  0  0  0  0  0  0  0
  -11.6903   45.2882  -16.4048 O   0  0  0  0  0  0  0  0  0  0  0  0
  -12.6360   45.4499  -17.3922 C   0  0  0  0  0  0  0  0  0  0  0  0
  -13.3839   46.5932  -17.4846 C   0  0  0  0  0  0  0  0  0  0  0  0
  -13.2201   47.7217  -16.5314 C   0  0  0  0  0  0  0  0  0  0  0  0
  -14.3230   46.6745  -18.5189 C   0  0  0  0  0  0  0  0  0  0  0  0
  -14.5078   45.7068  -19.3901 N   0  0  0  0  0  0  0  0  0  0  0  0
  -13.7645   44.5723  -19.2976 C   0  0  0  0  0  0  0  0  0  0  0  0
  -13.9992   43.5388  -20.3082 C   0  0  0  0  0  0  0  0  0  0  0  0
  -14.9048   42.5105  -19.8488 N   0  0  0  0  0  0  0  0  0  0  0  0
  -14.7311   41.5295  -18.9635 C   0  0  0  0  0  0  0  0  0  0  0  0
  -15.8935   40.8116  -18.8488 N   0  0  0  0  0  0  0  0  0  0  0  0
  -16.8137   41.3302  -19.6588 C   0  0  0  0  0  0  0  0  0  0  0  0
  -18.1380   41.0387  -19.9632 C   0  0  0  0  0  0  0  0  0  0  0  0
  -18.9394   39.7001  -19.1841 Cl  0  0  0  0  0  0  0  0  0  0  0  0
  -18.7827   41.7859  -20.8479 N   0  0  0  0  0  0  0  0  0  0  0  0
  -18.2008   42.8396  -21.4809 C   0  0  0  0  0  0  0  0  0  0  0  0
  -18.9135   43.6250  -22.4232 N   0  0  0  0  0  0  0  0  0  0  0  0
  -16.9261   43.1017  -21.1726 N   0  0  0  0  0  0  0  0  0  0  0  0
  -16.1998   42.3932  -20.2864 C   0  0  0  0  0  0  0  0  0  0  0  0
  -12.8201   44.4155  -18.3073 C   0  0  0  0  0  0  0  0  0  0  0  0
  -12.0106   43.1665  -18.1930 C   0  0  0  0  0  0  0  0  0  0  0  0
  1  2  1  0
  2  3  1  0
  3  4  2  0
  4  5  1  0
  4  6  1  0
  6  7  2  0
  7  8  1  0
  8  9  1  0
  9 10  1  0
 10 11  1  0
 11 12  2  0
 12 13  1  0
 13 14  2  0
 14 15  1  0
 14 16  1  0
 16 17  2  0
 17 18  1  0
 17 19  1  0
 19 20  2  0
  8 21  2  0
 21 22  1  0
 21  3  1  0
 20 10  1  0
 20 13  1  0
M  END
$$$$
