
     RDKit          3D

 16 18  0  0  0  0  0  0  0  0999 V2000
  -26.8483   19.6547  -24.8768 C   0  0  0  0  0  0  0  0  0  0  0  0
  -27.5411   18.8544  -25.7785 O   0  0  0  0  0  0  0  0  0  0  0  0
  -28.0080   19.2536  -27.0110 C   0  0  0  0  0  0  0  0  0  0  0  0
  -28.9435   18.4910  -27.6861 C   0  0  0  0  0  0  0  0  0  0  0  0
  -29.4152   18.8906  -28.9270 C   0  0  0  0  0  0  0  0  0  0  0  0
  -28.9669   20.0488  -29.5140 C   0  0  0  0  0  0  0  0  0  0  0  0
  -28.0402   20.8345  -28.8799 C   0  0  0  0  0  0  0  0  0  0  0  0
  -27.5904   20.3943  -27.6287 C   0  0  0  0  0  0  0  0  0  0  0  0
  -27.5108   22.0530  -29.4017 N   0  0  0  0  0  0  0  0  0  0  0  0
  -27.8688   22.6179  -30.6439 C   0  0  0  0  0  0  0  0  0  0  0  0
  -27.2855   23.8232  -31.0611 C   0  0  0  0  0  0  0  0  0  0  0  0
  -27.5803   24.4335  -32.2509 C   0  0  0  0  0  0  0  0  0  0  0  0
  -28.4921   23.8615  -33.1055 C   0  0  0  0  0  0  0  0  0  0  0  0
  -29.0701   22.6694  -32.6947 C   0  0  0  0  0  0  0  0  0  0  0  0
  -28.7686   22.0743  -31.5113 C   0  0  0  0  0  0  0  0  0  0  0  0
  -29.5806   20.5549  -31.1125 S   0  0  0  0  0  0  0  0  0  0  0  0
  1  2  1  0
  2  3  1  0
  3  4  2  0
  4  5  1  0
  5  6  2  0
  6  7  1  0
  7  8  2  0
  7  9  1  0
  9 10  1  0
 10 11  2  0
 11 12  1  0
 12 13  2  0
 13 14  1  0
 14 15  2  0
 15 16  1  0
  8  3  1  0
 15 10  1  0
 16  6  1  0
M  END
$$$$
