
     RDKit          3D

 12 13  0  0  0  0  0  0  0  0999 V2000
  -16.5321   34.7274  -22.1890 S   0  0  0  0  0  0  0  0  0  0  0  0
  -18.1782   34.7282  -22.3300 C   0  0  0  0  0  0  0  0  0  0  0  0
  -19.0129   33.6905  -22.1925 N   0  0  0  0  0  0  0  0  0  0  0  0
  -20.2266   34.1632  -22.3915 N   0  0  0  0  0  0  0  0  0  0  0  0
  -20.1503   35.4560  -22.6453 N   0  0  0  0  0  0  0  0  0  0  0  0
  -18.8681   35.8440  -22.6137 N   0  0  0  0  0  0  0  0  0  0  0  0
  -18.3735   37.1628  -22.8369 C   0  0  0  0  0  0  0  0  0  0  0  0
  -18.8160   37.9121  -23.9028 C   0  0  0  0  0  0  0  0  0  0  0  0
  -18.3262   39.2062  -24.1160 C   0  0  0  0  0  0  0  0  0  0  0  0
  -17.3937   39.7635  -23.2711 C   0  0  0  0  0  0  0  0  0  0  0  0
  -16.9557   39.0075  -22.2065 C   0  0  0  0  0  0  0  0  0  0  0  0
  -17.4428   37.7317  -22.0019 C   0  0  0  0  0  0  0  0  0  0  0  0
  1  2  2  0
  2  3  1  0
  3  4  1  0
  4  5  2  0
  5  6  1  0
  6  7  1  0
  7  8  2  0
  8  9  1  0
  9 10  2  0
 10 11  1  0
 11 12  2  0
  6  2  1  0
 12  7  1  0
M  END
$$$$
