
     RDKit          3D

 24 27  0  0  0  0  0  0  0  0999 V2000
  -25.7927   24.9782  -35.6658 C   0  0  0  0  0  0  0  0  0  0  0  0
  -25.3059   25.7006  -36.8796 C   0  0  2  0  0  0  0  0  0  0  0  0
  -24.3585   26.8086  -36.5911 C   0  0  0  0  0  0  0  0  0  0  0  0
  -25.0925   27.7630  -35.6371 C   0  0  0  0  0  0  0  0  0  0  0  0
  -26.2583   28.3475  -36.3595 C   0  0  1  0  0  0  0  0  0  0  0  0
  -27.2183   27.3271  -36.8950 C   0  0  1  0  0  0  0  0  0  0  0  0
  -28.1918   28.0189  -37.8153 C   0  0  0  0  0  0  0  0  0  0  0  0
  -28.2068   29.5040  -37.7334 C   0  0  0  0  0  0  0  0  0  0  0  0
  -27.9088   30.0708  -36.4080 C   0  0  0  0  0  0  0  0  0  0  0  0
  -28.3943   31.2365  -36.0488 C   0  0  0  0  0  0  0  0  0  0  0  0
  -28.0468   31.7270  -34.7099 C   0  0  0  0  0  0  0  0  0  0  0  0
  -28.8666   32.4856  -34.1205 O   0  0  0  0  0  0  0  0  0  0  0  0
  -26.7841   31.3491  -34.0717 C   0  0  0  0  0  0  0  0  0  0  0  0
  -26.1212   30.1701  -34.7011 C   0  0  0  0  0  0  0  0  0  0  0  0
  -27.0427   29.2952  -35.4850 C   0  0  2  0  0  0  0  0  0  0  0  0
  -27.9398   28.5453  -34.5233 C   0  0  0  0  0  0  0  0  0  0  0  0
  -26.4721   26.3046  -37.6787 C   0  0  2  0  0  0  0  0  0  0  0  0
  -27.2200   25.0652  -38.0299 C   0  0  0  0  0  0  0  0  0  0  0  0
  -26.1234   24.0247  -38.2929 C   0  0  0  0  0  0  0  0  0  0  0  0
  -24.8086   24.7033  -37.8971 C   0  0  2  0  0  0  0  0  0  0  0  0
  -23.8266   23.7625  -37.3597 C   0  0  0  0  0  0  0  0  0  0  0  0
  -24.2013   22.8086  -36.7038 O   0  0  0  0  0  0  0  0  0  0  0  0
  -22.3906   23.9481  -37.5980 C   0  0  0  0  0  0  0  0  0  0  0  0
  -22.0877   24.1917  -38.9365 O   0  0  0  0  0  0  0  0  0  0  0  0
  2  1  1  1
  2  3  1  0
  3  4  1  0
  5  4  1  1
  5  6  1  0
  6  7  1  6
  7  8  1  0
  8  9  1  0
  9 10  2  0
 10 11  1  0
 11 12  2  0
 11 13  1  0
 13 14  1  0
 14 15  1  0
 15 16  1  1
  6 17  1  0
 17 18  1  1
 18 19  1  0
 19 20  1  0
 20 21  1  1
 21 22  2  0
 21 23  1  0
 23 24  1  0
 17  2  1  0
 20  2  1  0
 15  5  1  0
 15  9  1  0
M  END
$$$$
