
     RDKit          3D

 18 19  0  0  0  0  0  0  0  0999 V2000
  -20.9796   41.1053  -23.6008 N   0  0  0  0  0  0  0  0  0  0  0  0
  -19.6415   41.3186  -24.0500 C   0  0  0  0  0  0  0  0  0  0  0  0
  -19.0916   42.4837  -24.3916 N   0  0  0  0  0  0  0  0  0  0  0  0
  -17.8681   42.2360  -24.7378 O   0  0  0  0  0  0  0  0  0  0  0  0
  -17.5796   40.9765  -24.6444 N   0  0  0  0  0  0  0  0  0  0  0  0
  -18.6710   40.3529  -24.2125 C   0  0  0  0  0  0  0  0  0  0  0  0
  -18.8329   38.9237  -23.9536 C   0  0  0  0  0  0  0  0  0  0  0  0
  -17.9697   38.0534  -24.3045 N   0  0  0  0  0  0  0  0  0  0  0  0
  -17.7510   36.9332  -23.4613 C   0  0  0  0  0  0  0  0  0  0  0  0
  -18.2466   35.7173  -23.8697 C   0  0  0  0  0  0  0  0  0  0  0  0
  -18.0907   34.5637  -23.1259 C   0  0  0  0  0  0  0  0  0  0  0  0
  -17.4055   34.6850  -21.9367 C   0  0  0  0  0  0  0  0  0  0  0  0
  -17.2126   33.5823  -21.1467 F   0  0  0  0  0  0  0  0  0  0  0  0
  -16.8916   35.8851  -21.4889 C   0  0  0  0  0  0  0  0  0  0  0  0
  -15.9485   35.9719  -19.8199 Br  0  0  0  0  0  0  0  0  0  0  0  0
  -17.0764   37.0016  -22.2698 C   0  0  0  0  0  0  0  0  0  0  0  0
  -20.0058   38.4866  -23.2804 N   0  0  0  0  0  0  0  0  0  0  0  0
  -20.4880   37.2424  -23.3437 O   0  0  0  0  0  0  0  0  0  0  0  0
  1  2  1  0
  2  3  2  0
  3  4  1  0
  4  5  1  0
  5  6  2  0
  6  7  1  0
  7  8  2  0
  8  9  1  0
  9 10  2  0
 10 11  1  0
 11 12  2  0
 12 13  1  0
 12 14  1  0
 14 15  1  0
 14 16  2  0
  7 17  1  0
 17 18  1  0
  6  2  1  0
 16  9  1  0
M  END
$$$$
