
     RDKit          3D

 12  9  0  0  0  0  0  0  0  0999 V2000
  -19.0009   35.3384  -22.4316 Cl  0  0  0  0  0  0  0  0  0  0  0  0
  -19.0023   35.3358  -22.4310 Cl  0  0  0  0  0  0  0  0  0  0  0  0
  -17.2937   40.0404  -22.8763 N   0  0  0  0  0  0  0  0  0  0  0  0
  -18.1325   39.2077  -23.7045 C   0  0  0  0  0  0  0  0  0  0  0  0
  -18.5524   38.0111  -22.8443 C   0  0  0  0  0  0  0  0  0  0  0  0
  -17.2723   37.3255  -22.4460 C   0  0  0  0  0  0  0  0  0  0  0  0
  -17.4410   36.1232  -21.5847 C   0  0  0  0  0  0  0  0  0  0  0  0
  -18.2728   35.1020  -22.3399 C   0  0  0  0  0  0  0  0  0  0  0  0
  -18.4788   33.8508  -21.5335 C   0  0  0  0  0  0  0  0  0  0  0  0
  -19.2974   32.8774  -22.3339 C   0  0  0  0  0  0  0  0  0  0  0  0
  -20.6395   33.4401  -22.6781 C   0  0  0  0  0  0  0  0  0  0  0  0
  -21.3422   33.7553  -21.4400 N   0  0  0  0  0  0  0  0  0  0  0  0
  3  4  1  0
  4  5  1  0
  5  6  1  0
  6  7  1  0
  7  8  1  0
  8  9  1  0
  9 10  1  0
 10 11  1  0
 11 12  1  0
M  END
$$$$
