
     RDKit          3D

 11 11  0  0  0  0  0  0  0  0999 V2000
  -18.8522   43.1196  -20.1858 N   0  0  0  0  0  0  0  0  0  0  0  0
  -18.4347   41.8243  -20.5568 C   0  0  0  0  0  0  0  0  0  0  0  0
  -18.1754   40.8337  -19.6200 C   0  0  0  0  0  0  0  0  0  0  0  0
  -17.7734   39.5882  -19.9902 C   0  0  0  0  0  0  0  0  0  0  0  0
  -17.6153   39.2861  -21.3133 C   0  0  0  0  0  0  0  0  0  0  0  0
  -17.1005   37.7023  -21.8593 S   0  0  0  0  0  6  0  0  0  0  0  0
  -16.9824   37.7567  -23.5784 N   0  0  0  0  0  0  0  0  0  0  0  0
  -15.7600   37.3284  -21.2878 O   0  0  0  0  0  0  0  0  0  0  0  0
  -18.1695   36.7044  -21.4360 O   0  0  0  0  0  0  0  0  0  0  0  0
  -17.8646   40.2478  -22.2738 C   0  0  0  0  0  0  0  0  0  0  0  0
  -18.2716   41.5064  -21.8847 C   0  0  0  0  0  0  0  0  0  0  0  0
  1  2  1  0
  2  3  2  0
  3  4  1  0
  4  5  2  0
  5  6  1  0
  6  7  1  0
  6  8  2  0
  6  9  2  0
  5 10  1  0
 10 11  2  0
 11  2  1  0
M  END
$$$$
