
     RDKit          3D

 28 31  0  0  0  0  0  0  0  0999 V2000
  -22.7490   20.8333  -43.0943 C   0  0  0  0  0  0  0  0  0  0  0  0
  -21.4290   21.5654  -43.0972 C   0  0  2  0  0  0  0  0  0  0  0  0
  -20.8663   21.3786  -44.5126 C   0  0  0  0  0  0  0  0  0  0  0  0
  -20.1754   22.6128  -44.9981 C   0  0  0  0  0  0  0  0  0  0  0  0
  -19.6289   22.4291  -46.3816 C   0  0  0  0  0  0  0  0  0  0  0  0
  -19.2501   21.2848  -46.7842 O   0  0  0  0  0  0  0  0  0  0  0  0
  -19.5067   23.4780  -47.2809 O   0  0  0  0  0  0  0  0  0  0  0  0
  -20.4108   21.0595  -42.1499 C   0  0  1  0  0  0  0  0  0  0  0  0
  -19.2886   22.0935  -42.0991 C   0  0  0  0  0  0  0  0  0  0  0  0
  -19.1966   22.4553  -40.6042 C   0  0  0  0  0  0  0  0  0  0  0  0
  -19.5428   21.1534  -40.0095 C   0  0  1  0  0  0  0  0  0  0  0  0
  -19.6195   21.0591  -38.5465 C   0  0  2  0  0  0  0  0  0  0  0  0
  -18.2179   21.3227  -37.9922 C   0  0  0  0  0  0  0  0  0  0  0  0
  -18.2542   21.1356  -36.4893 C   0  0  0  0  0  0  0  0  0  0  0  0
  -18.7292   19.7644  -36.1214 C   0  0  2  0  0  0  0  0  0  0  0  0
  -17.6308   18.7862  -36.4370 C   0  0  0  0  0  0  0  0  0  0  0  0
  -18.0013   17.3586  -36.1775 C   0  0  2  0  0  0  0  0  0  0  0  0
  -17.0055   16.5536  -36.7708 O   0  0  0  0  0  0  0  0  0  0  0  0
  -19.2910   17.0127  -36.8965 C   0  0  0  0  0  0  0  0  0  0  0  0
  -20.3658   17.9696  -36.4441 C   0  0  0  0  0  0  0  0  0  0  0  0
  -20.0540   19.3954  -36.7439 C   0  0  1  0  0  0  0  0  0  0  0  0
  -21.1395   20.2464  -36.1222 C   0  0  0  0  0  0  0  0  0  0  0  0
  -19.9608   19.6147  -38.2267 C   0  0  1  0  0  0  0  0  0  0  0  0
  -21.1702   19.1348  -38.9590 C   0  0  0  0  0  0  0  0  0  0  0  0
  -21.0070   19.3073  -40.4485 C   0  0  2  0  0  0  0  0  0  0  0  0
  -19.8024   18.6998  -40.7999 O   0  0  0  0  0  0  0  0  0  0  0  0
  -20.8263   20.7903  -40.7504 C   0  0  2  0  0  0  0  0  0  0  0  0
  -22.0136   21.5279  -40.2584 C   0  0  0  0  0  0  0  0  0  0  0  0
  2  1  1  6
  2  3  1  0
  3  4  1  0
  4  5  1  0
  5  6  2  0
  5  7  1  0
  2  8  1  0
  8  9  1  1
  9 10  1  0
 11 10  1  1
 11 12  1  0
 12 13  1  1
 13 14  1  0
 15 14  1  6
 15 16  1  0
 16 17  1  0
 17 18  1  6
 17 19  1  0
 19 20  1  0
 20 21  1  0
 21 22  1  1
 21 23  1  0
 23 24  1  6
 24 25  1  0
 25 26  1  1
 25 27  1  0
 27 28  1  1
 27  8  1  0
 27 11  1  0
 23 12  1  0
 21 15  1  0
M  END
$$$$
