
     RDKit          3D

  9  7  0  0  0  0  0  0  0  0999 V2000
  -19.0080   36.1315  -23.2934 C   0  0  0  0  0  0  0  0  0  0  0  0
  -18.0232   35.5701  -22.4263 N   0  0  0  0  0  4  0  0  0  0  0  0
  -17.5785   34.2705  -22.8841 C   0  0  0  0  0  0  0  0  0  0  0  0
  -16.8436   36.4463  -22.4900 C   0  0  0  0  0  0  0  0  0  0  0  0
  -18.4118   35.4971  -21.0516 C   0  0  0  0  0  0  0  0  0  0  0  0
  -19.6015   34.6895  -20.8050 C   0  0  0  0  0  0  0  0  0  0  0  0
  -20.0283   34.5600  -19.6305 O   0  0  0  0  0  0  0  0  0  0  0  0
  -20.3020   34.0439  -21.8130 O   0  0  0  0  0  0  0  0  0  0  0  0
  -18.3367   35.3554  -22.2131 Cl  0  0  0  0  0 15  0  0  0  0  0  0
  1  2  1  0
  2  3  1  0
  2  4  1  0
  2  5  1  0
  5  6  1  0
  6  7  2  0
  6  8  1  0
M  CHG  2   2   1   9  -1
M  END
$$$$
