
     RDKit          3D

 34 37  0  0  0  0  0  0  0  0999 V2000
  -13.5873   20.8294  -43.5933 C   0  0  0  0  0  0  0  0  0  0  0  0
  -13.1283   19.8469  -42.6805 O   0  0  0  0  0  0  0  0  0  0  0  0
  -13.9337   19.3878  -41.6344 C   0  0  0  0  0  0  0  0  0  0  0  0
  -15.0539   18.6522  -41.9477 C   0  0  0  0  0  0  0  0  0  0  0  0
  -15.8316   18.2117  -40.8870 C   0  0  0  0  0  0  0  0  0  0  0  0
  -15.5071   18.4909  -39.5922 C   0  0  0  0  0  0  0  0  0  0  0  0
  -16.1088   18.1707  -38.4144 C   0  0  0  0  0  0  0  0  0  0  0  0
  -15.3358   18.7199  -37.3797 C   0  0  0  0  0  0  0  0  0  0  0  0
  -14.2924   19.3572  -37.9887 N   0  0  0  0  0  0  0  0  0  0  0  0
  -14.3674   19.2372  -39.3107 C   0  0  0  0  0  0  0  0  0  0  0  0
  -13.5613   19.6975  -40.3431 C   0  0  0  0  0  0  0  0  0  0  0  0
  -15.7936   18.5275  -36.0064 C   0  0  2  0  0  0  0  0  0  0  0  0
  -15.3085   17.3156  -35.3441 C   0  0  0  0  0  0  0  0  0  0  0  0
  -14.9112   17.4487  -33.9242 C   0  0  0  0  0  0  0  0  0  0  0  0
  -14.0818   18.6538  -33.6531 C   0  0  0  0  0  0  0  0  0  0  0  0
  -14.1078   16.2101  -33.4623 C   0  0  0  0  0  0  0  0  0  0  0  0
  -17.2727   18.5917  -35.9500 N   0  0  0  0  0  0  0  0  0  0  0  0
  -17.9058   18.8892  -34.6999 C   0  0  0  0  0  0  0  0  0  0  0  0
  -17.3038   19.5280  -33.8074 O   0  0  0  0  0  0  0  0  0  0  0  0
  -19.2960   18.4556  -34.4083 C   0  0  2  0  0  0  0  0  0  0  0  0
  -19.3435   17.1205  -33.7159 C   0  0  0  0  0  0  0  0  0  0  0  0
  -20.2077   16.0981  -34.3661 C   0  0  0  0  0  0  0  0  0  0  0  0
  -21.6573   16.3627  -34.2724 C   0  0  0  0  0  0  0  0  0  0  0  0
  -22.1783   16.5597  -33.1248 O   0  0  0  0  0  0  0  0  0  0  0  0
  -22.5373   16.4204  -35.3363 O   0  0  0  0  0  0  0  0  0  0  0  0
  -23.7170   15.6420  -35.4103 C   0  0  0  0  0  0  0  0  0  0  0  0
  -23.8752   15.0153  -36.7875 C   0  0  0  0  0  0  0  0  0  0  0  0
  -23.7291   14.5397  -34.3910 C   0  0  0  0  0  0  0  0  0  0  0  0
  -24.9111   16.5374  -35.1830 C   0  0  0  0  0  0  0  0  0  0  0  0
  -20.0853   18.3194  -35.6185 N   0  0  0  0  0  0  0  0  0  0  0  0
  -19.4418   17.9384  -36.8076 C   0  0  0  0  0  0  0  0  0  0  0  0
  -20.0347   17.2347  -37.6462 O   0  0  0  0  0  0  0  0  0  0  0  0
  -18.0611   18.3610  -37.0856 C   0  0  2  0  0  0  0  0  0  0  0  0
  -17.3655   17.4539  -38.0772 C   0  0  0  0  0  0  0  0  0  0  0  0
  1  2  1  0
  2  3  1  0
  3  4  2  0
  4  5  1  0
  5  6  2  0
  6  7  1  0
  7  8  2  0
  8  9  1  0
  9 10  1  0
 10 11  2  0
  8 12  1  0
 12 13  1  6
 13 14  1  0
 14 15  1  0
 14 16  1  0
 12 17  1  0
 17 18  1  0
 18 19  2  0
 18 20  1  0
 20 21  1  6
 21 22  1  0
 22 23  1  0
 23 24  2  0
 23 25  1  0
 25 26  1  0
 26 27  1  0
 26 28  1  0
 26 29  1  0
 20 30  1  0
 30 31  1  0
 31 32  2  0
 31 33  1  0
 33 34  1  6
 11  3  1  0
 33 17  1  0
 10  6  1  0
 34  7  1  0
M  END
$$$$
