
     RDKit          3D

 32 34  0  0  0  0  0  0  0  0999 V2000
  -49.0351    9.3898  -41.3327 C   0  0  0  0  0  0  0  0  0  0  0  0
  -47.7422    8.6811  -41.6478 C   0  0  0  0  0  0  0  0  0  0  0  0
  -47.4395    7.6421  -40.7800 O   0  0  0  0  0  0  0  0  0  0  0  0
  -46.2123    7.0960  -40.4861 C   0  0  0  0  0  0  0  0  0  0  0  0
  -45.1061    7.3262  -41.2575 C   0  0  0  0  0  0  0  0  0  0  0  0
  -43.9036    6.7514  -40.9272 C   0  0  0  0  0  0  0  0  0  0  0  0
  -42.6611    6.8742  -41.6505 C   0  0  1  0  0  0  0  0  0  0  0  0
  -42.4929    6.2687  -42.9812 C   0  0  0  0  0  0  0  0  0  0  0  0
  -41.6806    4.7789  -43.2399 S   0  0  0  0  0  6  0  0  0  0  0  0
  -41.5817    4.1891  -44.9015 C   0  0  0  0  0  0  0  0  0  0  0  0
  -40.3619    4.6164  -42.5194 O   0  0  0  0  0  0  0  0  0  0  0  0
  -42.5400    3.6673  -42.5393 O   0  0  0  0  0  0  0  0  0  0  0  0
  -42.2858    8.3040  -41.6603 N   0  0  0  0  0  0  0  0  0  0  0  0
  -41.2458    8.9162  -42.4062 C   0  0  0  0  0  0  0  0  0  0  0  0
  -40.4720    8.3635  -43.2448 O   0  0  0  0  0  0  0  0  0  0  0  0
  -41.1668   10.3346  -42.0769 C   0  0  0  0  0  0  0  0  0  0  0  0
  -40.3295   11.3545  -42.5301 C   0  0  0  0  0  0  0  0  0  0  0  0
  -40.4824   12.6327  -42.0358 C   0  0  0  0  0  0  0  0  0  0  0  0
  -41.4615   12.8868  -41.0992 C   0  0  0  0  0  0  0  0  0  0  0  0
  -42.3020   11.8991  -40.6341 C   0  0  0  0  0  0  0  0  0  0  0  0
  -43.3092   12.1632  -39.6698 N   0  0  0  0  0  0  0  0  0  0  0  0
  -44.0257   13.3946  -39.8048 C   0  0  0  0  0  0  0  0  0  0  0  0
  -45.2657   13.6882  -39.0535 C   0  0  0  0  0  0  0  0  0  0  0  0
  -43.6045   14.2890  -40.5928 O   0  0  0  0  0  0  0  0  0  0  0  0
  -42.1470   10.6182  -41.1311 C   0  0  0  0  0  0  0  0  0  0  0  0
  -42.8409    9.3381  -40.8772 C   0  0  0  0  0  0  0  0  0  0  0  0
  -43.7877    9.3039  -40.0430 O   0  0  0  0  0  0  0  0  0  0  0  0
  -43.8775    5.9393  -39.7835 C   0  0  0  0  0  0  0  0  0  0  0  0
  -44.9822    5.7043  -39.0027 C   0  0  0  0  0  0  0  0  0  0  0  0
  -46.1733    6.2790  -39.3396 C   0  0  0  0  0  0  0  0  0  0  0  0
  -47.3351    6.1034  -38.6207 O   0  0  0  0  0  0  0  0  0  0  0  0
  -47.4779    6.3983  -37.2651 C   0  0  0  0  0  0  0  0  0  0  0  0
  1  2  1  0
  2  3  1  0
  3  4  1  0
  4  5  2  0
  5  6  1  0
  6  7  1  0
  7  8  1  6
  8  9  1  0
  9 10  1  0
  9 11  2  0
  9 12  2  0
  7 13  1  0
 13 14  1  0
 14 15  2  0
 14 16  1  0
 16 17  2  0
 17 18  1  0
 18 19  2  0
 19 20  1  0
 20 21  1  0
 21 22  1  0
 22 23  1  0
 22 24  2  0
 20 25  2  0
 25 26  1  0
 26 27  2  0
  6 28  2  0
 28 29  1  0
 29 30  2  0
 30 31  1  0
 31 32  1  0
 30  4  1  0
 26 13  1  0
 25 16  1  0
M  END
$$$$
