
     RDKit          3D

 28 31  0  0  0  0  0  0  0  0999 V2000
  -18.1832   41.4679  -25.3599 C   0  0  0  0  0  0  0  0  0  0  0  0
  -18.7372   40.1831  -25.4630 O   0  0  0  0  0  0  0  0  0  0  0  0
  -19.8910   39.9310  -26.1783 C   0  0  0  0  0  0  0  0  0  0  0  0
  -20.3644   40.9311  -27.0172 C   0  0  0  0  0  0  0  0  0  0  0  0
  -21.5079   40.6998  -27.7353 C   0  0  0  0  0  0  0  0  0  0  0  0
  -22.1648   39.5154  -27.6282 C   0  0  0  0  0  0  0  0  0  0  0  0
  -21.6706   38.5480  -26.7905 C   0  0  0  0  0  0  0  0  0  0  0  0
  -20.5047   38.7150  -26.0242 C   0  0  0  0  0  0  0  0  0  0  0  0
  -20.0663   37.6405  -25.1742 C   0  0  0  0  0  0  0  0  0  0  0  0
  -19.6417   36.5694  -25.7423 O   0  0  0  0  0  0  0  0  0  0  0  0
  -20.0294   37.5789  -23.7787 N   0  0  0  0  0  0  0  0  0  0  0  0
  -19.3323   36.5663  -23.0321 C   0  0  0  0  0  0  0  0  0  0  0  0
  -19.9429   35.3271  -22.9754 C   0  0  0  0  0  0  0  0  0  0  0  0
  -19.3636   34.2995  -22.3012 C   0  0  0  0  0  0  0  0  0  0  0  0
  -18.1619   34.5003  -21.6731 C   0  0  0  0  0  0  0  0  0  0  0  0
  -17.5454   35.7110  -21.7171 C   0  0  0  0  0  0  0  0  0  0  0  0
  -18.1346   36.7618  -22.4049 C   0  0  0  0  0  0  0  0  0  0  0  0
  -17.5215   38.0344  -22.4781 N   0  0  0  0  0  0  0  0  0  0  0  0
  -18.1856   39.2464  -22.8713 C   0  0  0  0  0  0  0  0  0  0  0  0
  -17.5220   40.3046  -22.0057 C   0  0  0  0  0  0  0  0  0  0  0  0
  -16.2558   39.7003  -21.4885 C   0  0  0  0  0  0  0  0  0  0  0  0
  -16.1530   38.3766  -22.1851 C   0  0  0  0  0  0  0  0  0  0  0  0
  -17.8722   33.2935  -21.1069 N   0  0  0  0  0  0  0  0  0  0  0  0
  -16.6721   33.0570  -20.3354 C   0  0  0  0  0  0  0  0  0  0  0  0
  -18.8610   32.4306  -21.3931 C   0  0  0  0  0  0  0  0  0  0  0  0
  -18.8974   31.2340  -21.0187 O   0  0  0  0  0  0  0  0  0  0  0  0
  -19.7944   33.0288  -22.1302 N   0  0  0  0  0  0  0  0  0  0  0  0
  -21.0358   32.4575  -22.6586 C   0  0  0  0  0  0  0  0  0  0  0  0
  1  2  1  0
  2  3  1  0
  3  4  2  0
  4  5  1  0
  5  6  2  0
  6  7  1  0
  7  8  2  0
  8  9  1  0
  9 10  2  0
  9 11  1  0
 11 12  1  0
 12 13  2  0
 13 14  1  0
 14 15  2  0
 15 16  1  0
 16 17  2  0
 17 18  1  0
 18 19  1  0
 19 20  1  0
 20 21  1  0
 21 22  1  0
 15 23  1  0
 23 24  1  0
 23 25  1  0
 25 26  2  0
 25 27  1  0
 27 28  1  0
  8  3  1  0
 17 12  1  0
 22 18  1  0
 27 14  1  0
M  END
$$$$
