
     RDKit          3D

 43 47  0  0  0  0  0  0  0  0999 V2000
  -23.5187   17.9518  -36.0874 C   0  0  0  0  0  0  0  0  0  0  0  0
  -22.1280   17.7906  -35.8261 N   0  0  0  0  0  0  0  0  0  0  0  0
  -21.6300   18.4917  -34.6966 C   0  0  0  0  0  0  0  0  0  0  0  0
  -21.2913   17.6307  -33.5127 C   0  0  0  0  0  0  0  0  0  0  0  0
  -21.4737   16.2224  -33.7769 N   0  0  0  0  0  0  0  0  0  0  0  0
  -22.1162   15.4040  -32.8464 C   0  0  0  0  0  0  0  0  0  0  0  0
  -21.7920   14.1914  -32.7541 O   0  0  0  0  0  0  0  0  0  0  0  0
  -23.1699   15.8620  -31.9419 C   0  0  0  0  0  0  0  0  0  0  0  0
  -22.8961   16.8065  -30.9864 C   0  0  0  0  0  0  0  0  0  0  0  0
  -23.8880   17.2239  -30.1411 C   0  0  0  0  0  0  0  0  0  0  0  0
  -25.1725   16.7316  -30.2048 C   0  0  0  0  0  0  0  0  0  0  0  0
  -26.1303   17.2292  -29.2660 N   0  0  0  0  0  0  0  0  0  0  0  0
  -27.0253   18.2015  -29.4909 N   0  0  0  0  0  0  0  0  0  0  0  0
  -27.7691   18.4284  -28.3976 C   0  0  0  0  0  0  0  0  0  0  0  0
  -28.8388   19.4093  -28.2686 C   0  0  0  0  0  0  0  0  0  0  0  0
  -28.7942   20.5832  -29.0025 C   0  0  0  0  0  0  0  0  0  0  0  0
  -29.8073   21.5255  -28.8870 C   0  0  0  0  0  0  0  0  0  0  0  0
  -30.8718   21.3116  -28.0436 C   0  0  0  0  0  0  0  0  0  0  0  0
  -31.9092   22.3215  -27.9507 C   0  0  0  0  0  0  0  0  0  0  0  0
  -32.8742   22.2085  -27.1544 O   0  0  0  0  0  0  0  0  0  0  0  0
  -31.8990   23.4776  -28.7384 O   0  0  0  0  0  0  0  0  0  0  0  0
  -30.9245   20.1517  -27.3130 C   0  0  0  0  0  0  0  0  0  0  0  0
  -29.9107   19.1987  -27.4226 C   0  0  0  0  0  0  0  0  0  0  0  0
  -27.2976   17.5422  -27.4554 C   0  0  0  0  0  0  0  0  0  0  0  0
  -26.2581   16.7860  -28.0165 C   0  0  0  0  0  0  0  0  0  0  0  0
  -25.5197   15.7510  -27.3041 C   0  0  0  0  0  0  0  0  0  0  0  0
  -24.4395   16.0799  -26.4988 C   0  0  0  0  0  0  0  0  0  0  0  0
  -23.7169   15.1305  -25.7992 C   0  0  0  0  0  0  0  0  0  0  0  0
  -22.5517   15.5223  -24.9387 C   0  0  0  0  0  0  0  0  0  0  0  0
  -22.8333   15.1589  -23.5024 C   0  0  0  0  0  0  0  0  0  0  0  0
  -22.1517   16.9494  -25.1336 C   0  0  0  0  0  0  0  0  0  0  0  0
  -21.3722   14.6471  -25.3729 C   0  0  0  0  0  0  0  0  0  0  0  0
  -24.0962   13.8156  -25.9169 C   0  0  0  0  0  0  0  0  0  0  0  0
  -25.1654   13.4343  -26.7064 C   0  0  0  0  0  0  0  0  0  0  0  0
  -25.5138   11.9981  -26.7803 C   0  0  0  0  0  0  0  0  0  0  0  0
  -26.6428   11.8390  -27.7692 C   0  0  0  0  0  0  0  0  0  0  0  0
  -25.8693   11.4116  -25.4331 C   0  0  0  0  0  0  0  0  0  0  0  0
  -24.3315   11.1899  -27.3084 C   0  0  0  0  0  0  0  0  0  0  0  0
  -25.8641   14.4058  -27.3903 C   0  0  0  0  0  0  0  0  0  0  0  0
  -25.4516   15.7844  -31.1618 C   0  0  0  0  0  0  0  0  0  0  0  0
  -24.4380   15.3567  -32.0272 C   0  0  0  0  0  0  0  0  0  0  0  0
  -20.9487   15.7542  -35.0489 C   0  0  0  0  0  0  0  0  0  0  0  0
  -21.6158   16.5224  -36.1280 C   0  0  0  0  0  0  0  0  0  0  0  0
  1  2  1  0
  2  3  1  0
  3  4  1  0
  4  5  1  0
  5  6  1  0
  6  7  2  0
  6  8  1  0
  8  9  2  0
  9 10  1  0
 10 11  2  0
 11 12  1  0
 12 13  1  0
 13 14  2  0
 14 15  1  0
 15 16  2  0
 16 17  1  0
 17 18  2  0
 18 19  1  0
 19 20  2  0
 19 21  1  0
 18 22  1  0
 22 23  2  0
 14 24  1  0
 24 25  2  0
 25 26  1  0
 26 27  2  0
 27 28  1  0
 28 29  1  0
 29 30  1  0
 29 31  1  0
 29 32  1  0
 28 33  2  0
 33 34  1  0
 34 35  1  0
 35 36  1  0
 35 37  1  0
 35 38  1  0
 34 39  2  0
 11 40  1  0
 40 41  2  0
  5 42  1  0
 42 43  1  0
 43  2  1  0
 41  8  1  0
 25 12  1  0
 39 26  1  0
 23 15  1  0
M  END
$$$$
