
     RDKit          3D

 22 22  0  0  0  0  0  0  0  0999 V2000
  -19.1369   39.1839  -25.2529 C   0  0  0  0  0  0  0  0  0  0  0  0
  -19.2775   37.9252  -24.5096 C   0  0  0  0  0  0  0  0  0  0  0  0
  -20.3359   37.0780  -24.7652 C   0  0  0  0  0  0  0  0  0  0  0  0
  -20.4686   35.8914  -24.0662 C   0  0  0  0  0  0  0  0  0  0  0  0
  -19.5378   35.5451  -23.1043 C   0  0  0  0  0  0  0  0  0  0  0  0
  -19.6776   34.3823  -22.4471 N   0  0  0  0  0  0  0  0  0  0  0  0
  -18.7903   33.9987  -21.5167 C   0  0  0  0  0  0  0  0  0  0  0  0
  -18.9480   32.7579  -20.8211 N   0  0  0  0  0  0  0  0  0  0  0  0
  -17.7644   34.8196  -21.2727 N   0  0  0  0  0  0  0  0  0  0  0  0
  -17.5839   35.9975  -21.9084 C   0  0  0  0  0  0  0  0  0  0  0  0
  -16.5981   36.7272  -21.6405 O   0  0  0  0  0  0  0  0  0  0  0  0
  -18.4791   36.4039  -22.8571 C   0  0  0  0  0  0  0  0  0  0  0  0
  -18.3310   37.5875  -23.5395 C   0  0  0  0  0  0  0  0  0  0  0  0
  -16.9536   38.6499  -23.1838 S   0  0  0  0  0  0  0  0  0  0  0  0
  -17.3238   39.9170  -21.9974 C   0  0  0  0  0  0  0  0  0  0  0  0
  -17.1577   39.8332  -20.6481 C   0  0  0  0  0  0  0  0  0  0  0  0
  -17.4860   40.8914  -19.7966 C   0  0  0  0  0  0  0  0  0  0  0  0
  -17.9712   42.0005  -20.3327 N   0  0  0  0  0  0  0  0  0  0  0  0
  -18.1692   42.1704  -21.6664 C   0  0  0  0  0  0  0  0  0  0  0  0
  -17.8368   41.1092  -22.4876 C   0  0  0  0  0  0  0  0  0  0  0  0
  -18.3793   38.3471  -22.5589 Cl  0  0  0  0  0  0  0  0  0  0  0  0
  -18.3795   38.3463  -22.5590 Cl  0  0  0  0  0  0  0  0  0  0  0  0
  1  2  1  0
  2  3  2  0
  3  4  1  0
  4  5  2  0
  5  6  1  0
  6  7  1  0
  7  8  1  0
  7  9  2  0
  9 10  1  0
 10 11  2  0
 10 12  1  0
 12 13  2  0
 13 14  1  0
 14 15  1  0
 15 16  2  0
 16 17  1  0
 17 18  2  0
 18 19  1  0
 19 20  2  0
 13  2  1  0
 20 15  1  0
 12  5  1  0
M  END
$$$$
