
     RDKit          3D

 21 22  0  0  0  0  0  0  0  0999 V2000
  -17.4316   40.2655  -24.5773 C   0  0  0  0  0  0  0  0  0  0  0  0
  -17.7632   40.8389  -23.2580 C   0  0  0  0  0  0  0  0  0  0  0  0
  -17.8517   40.0494  -22.0437 C   0  0  0  0  0  0  0  0  0  0  0  0
  -17.7497   38.7471  -22.0665 C   0  0  0  0  0  0  0  0  0  0  0  0
  -16.4416   37.7315  -21.3362 S   0  0  0  0  0  0  0  0  0  0  0  0
  -17.3330   36.1893  -21.4416 C   0  0  0  0  0  0  0  0  0  0  0  0
  -16.9145   34.8407  -20.6393 S   0  0  0  0  0  0  0  0  0  0  0  0
  -18.3978   36.4357  -22.3304 N   0  0  0  0  0  0  0  0  0  0  0  0
  -19.1886   35.2960  -22.8385 C   0  0  0  0  0  0  0  0  0  0  0  0
  -20.4437   35.1560  -22.0882 C   0  0  0  0  0  0  0  0  0  0  0  0
  -21.1529   34.1265  -22.3073 O   0  0  0  0  0  0  0  0  0  0  0  0
  -20.8885   36.0841  -21.1610 O   0  0  0  0  0  0  0  0  0  0  0  0
  -18.6334   37.7572  -22.6698 C   0  0  0  0  0  0  0  0  0  0  0  0
  -19.5630   38.1416  -23.4659 O   0  0  0  0  0  0  0  0  0  0  0  0
  -17.9926   42.1438  -23.1480 C   0  0  0  0  0  0  0  0  0  0  0  0
  -17.9834   42.8921  -21.9011 C   0  0  0  0  0  0  0  0  0  0  0  0
  -16.8663   42.8091  -21.0736 C   0  0  0  0  0  0  0  0  0  0  0  0
  -16.7938   43.4572  -19.8602 C   0  0  0  0  0  0  0  0  0  0  0  0
  -17.8377   44.2245  -19.4094 C   0  0  0  0  0  0  0  0  0  0  0  0
  -18.9554   44.3213  -20.2117 C   0  0  0  0  0  0  0  0  0  0  0  0
  -19.0197   43.6624  -21.4367 C   0  0  0  0  0  0  0  0  0  0  0  0
  1  2  1  0
  2  3  1  0
  3  4  2  0
  4  5  1  0
  5  6  1  0
  6  7  2  0
  6  8  1  0
  8  9  1  0
  9 10  1  0
 10 11  2  0
 10 12  1  0
  8 13  1  0
 13 14  2  0
  2 15  2  0
 15 16  1  0
 16 17  2  0
 17 18  1  0
 18 19  2  0
 19 20  1  0
 20 21  2  0
 13  4  1  0
 21 16  1  0
M  END
$$$$
