
     RDKit          3D

 17 19  0  0  0  0  0  0  0  0999 V2000
  -26.8544   24.3552  -32.0581 N   0  0  0  0  0  0  0  0  0  0  0  0
  -25.7581   25.0851  -32.5195 C   0  0  0  0  0  0  0  0  0  0  0  0
  -24.4924   24.9717  -32.0012 C   0  0  0  0  0  0  0  0  0  0  0  0
  -23.5558   25.7424  -32.5571 N   0  0  0  0  0  0  0  0  0  0  0  0
  -23.7559   26.5998  -33.5618 C   0  0  0  0  0  0  0  0  0  0  0  0
  -22.7581   27.2498  -33.9660 O   0  0  0  0  0  0  0  0  0  0  0  0
  -25.0395   26.7644  -34.1420 C   0  0  0  0  0  0  0  0  0  0  0  0
  -25.3718   27.5828  -35.1449 C   0  0  0  0  0  0  0  0  0  0  0  0
  -26.6848   27.6007  -35.5730 C   0  0  0  0  0  0  0  0  0  0  0  0
  -27.3874   28.3335  -36.5971 C   0  0  0  0  0  0  0  0  0  0  0  0
  -26.9780   29.6158  -36.9660 C   0  0  0  0  0  0  0  0  0  0  0  0
  -27.6840   30.2671  -37.9469 C   0  0  0  0  0  0  0  0  0  0  0  0
  -28.7608   29.6886  -38.5550 C   0  0  0  0  0  0  0  0  0  0  0  0
  -29.1815   28.4232  -38.2055 C   0  0  0  0  0  0  0  0  0  0  0  0
  -28.4654   27.7776  -37.2190 C   0  0  0  0  0  0  0  0  0  0  0  0
  -27.4338   26.3682  -34.4512 S   0  0  0  0  0  0  0  0  0  0  0  0
  -25.9920   25.9874  -33.5841 C   0  0  0  0  0  0  0  0  0  0  0  0
  1  2  1  0
  2  3  2  0
  3  4  1  0
  4  5  1  0
  5  6  2  0
  5  7  1  0
  7  8  1  0
  8  9  2  0
  9 10  1  0
 10 11  2  0
 11 12  1  0
 12 13  2  0
 13 14  1  0
 14 15  2  0
  9 16  1  0
 16 17  1  0
 17  2  1  0
 17  7  2  0
 15 10  1  0
M  END
$$$$
