
     RDKit          3D

 24 24  0  0  0  0  0  0  0  0999 V2000
  -15.8239   44.2278  -22.5574 C   0  0  0  0  0  0  0  0  0  0  0  0
  -16.6319   43.1042  -21.9422 C   0  0  0  0  0  0  0  0  0  0  0  0
  -17.4986   43.7391  -20.8501 C   0  0  0  0  0  0  0  0  0  0  0  0
  -17.5121   42.5394  -23.0476 C   0  0  2  0  0  0  0  0  0  0  0  0
  -18.3898   43.5664  -23.5658 N   0  0  0  0  0  0  0  0  0  0  0  0
  -18.3688   41.4496  -22.4636 C   0  0  0  0  0  0  0  0  0  0  0  0
  -19.6267   41.5335  -22.4835 O   0  0  0  0  0  0  0  0  0  0  0  0
  -17.8170   40.3224  -21.8868 O   0  0  0  0  0  0  0  0  0  0  0  0
  -18.6620   39.3209  -21.3490 C   0  0  0  0  0  0  0  0  0  0  0  0
  -17.8675   38.1767  -20.7676 C   0  0  0  0  0  0  0  0  0  0  0  0
  -17.0617   37.5364  -21.6585 O   0  0  0  0  0  0  0  0  0  0  0  0
  -17.6677   36.9520  -22.7306 C   0  0  0  0  0  0  0  0  0  0  0  0
  -18.6293   35.9246  -22.3960 N   0  0  0  0  0  0  0  0  0  0  0  0
  -19.9453   36.0284  -22.1656 C   0  0  0  0  0  0  0  0  0  0  0  0
  -20.4740   34.8248  -21.8862 N   0  0  0  0  0  0  0  0  0  0  0  0
  -19.5020   33.9200  -21.9321 C   0  0  0  0  0  0  0  0  0  0  0  0
  -19.4468   32.5392  -21.7353 C   0  0  0  0  0  0  0  0  0  0  0  0
  -20.4998   31.9179  -21.4453 O   0  0  0  0  0  0  0  0  0  0  0  0
  -18.2638   31.9213  -21.8638 N   0  0  0  0  0  0  0  0  0  0  0  0
  -17.1113   32.5694  -22.1765 C   0  0  0  0  0  0  0  0  0  0  0  0
  -15.8795   31.8828  -22.3037 N   0  0  0  0  0  0  0  0  0  0  0  0
  -17.2034   33.9007  -22.3590 N   0  0  0  0  0  0  0  0  0  0  0  0
  -18.3451   34.6005  -22.2505 C   0  0  0  0  0  0  0  0  0  0  0  0
  -17.8888   37.9020  -22.1241 Cl  0  0  0  0  0  0  0  0  0  0  0  0
  1  2  1  0
  2  3  1  0
  2  4  1  0
  4  5  1  1
  4  6  1  0
  6  7  2  0
  6  8  1  0
  8  9  1  0
  9 10  1  0
 10 11  1  0
 11 12  1  0
 12 13  1  0
 13 14  1  0
 14 15  2  0
 15 16  1  0
 16 17  1  0
 17 18  2  0
 17 19  1  0
 19 20  1  0
 20 21  1  0
 20 22  2  0
 22 23  1  0
 23 13  1  0
 23 16  2  0
M  END
$$$$
