
     RDKit          3D

 11 12  0  0  0  0  0  0  0  0999 V2000
  -19.9851   37.8957  -24.4377 N   0  0  0  0  0  0  0  0  0  0  0  0
  -19.1761   38.0366  -23.2811 C   0  0  0  0  0  0  0  0  0  0  0  0
  -19.5929   38.7197  -22.1885 N   0  0  0  0  0  0  0  0  0  0  0  0
  -18.8643   38.8738  -21.0861 C   0  0  0  0  0  0  0  0  0  0  0  0
  -18.9952   39.4701  -19.8900 N   0  0  0  0  0  0  0  0  0  0  0  0
  -17.9140   39.2979  -19.1496 N   0  0  0  0  0  0  0  0  0  0  0  0
  -17.0498   38.5698  -19.8772 N   0  0  0  0  0  0  0  0  0  0  0  0
  -17.6070   38.2966  -21.0675 C   0  0  0  0  0  0  0  0  0  0  0  0
  -17.1577   37.5970  -22.1631 C   0  0  0  0  0  0  0  0  0  0  0  0
  -15.9994   37.0601  -22.1574 O   0  0  0  0  0  0  0  0  0  0  0  0
  -17.9597   37.4879  -23.2412 N   0  0  0  0  0  0  0  0  0  0  0  0
  1  2  1  0
  2  3  2  0
  3  4  1  0
  4  5  1  0
  5  6  1  0
  6  7  2  0
  7  8  1  0
  8  9  1  0
  9 10  2  0
  9 11  1  0
 11  2  1  0
  8  4  2  0
M  END
$$$$
