
     RDKit          3D

 13 13  0  0  0  0  0  0  0  0999 V2000
  -15.4313   43.9143  -20.0701 C   0  0  0  0  0  0  0  0  0  0  0  0
  -14.6444   43.3645  -19.0197 N   0  0  0  0  0  0  0  0  0  0  0  0
  -13.3166   42.9869  -19.3359 C   0  0  0  0  0  0  0  0  0  0  0  0
  -13.3822   41.9166  -20.4275 C   0  0  0  0  0  0  0  0  0  0  0  0
  -12.4067   44.0597  -19.8316 C   0  0  0  0  0  0  0  0  0  0  0  0
  -12.4039   45.3111  -19.0124 C   0  0  0  0  0  0  0  0  0  0  0  0
  -12.0848   44.7936  -17.6293 C   0  0  0  0  0  0  0  0  0  0  0  0
  -11.5707   43.3858  -17.8415 C   0  0  0  0  0  0  0  0  0  0  0  0
  -11.0692   43.4975  -19.2927 C   0  0  0  0  0  0  0  0  0  0  0  0
  -12.7037   42.4133  -18.0745 C   0  0  0  0  0  0  0  0  0  0  0  0
  -12.0958   41.0544  -18.2919 C   0  0  0  0  0  0  0  0  0  0  0  0
  -13.6520   42.3275  -16.9243 C   0  0  0  0  0  0  0  0  0  0  0  0
  -13.6323   43.1100  -19.0586 Cl  0  0  0  0  0  0  0  0  0  0  0  0
  1  2  1  0
  2  3  1  0
  3  4  1  0
  3  5  1  0
  5  6  1  0
  6  7  1  0
  7  8  1  0
  8  9  1  0
  8 10  1  0
 10 11  1  0
 10 12  1  0
 10  3  1  0
  9  5  1  0
M  END
$$$$
