
     RDKit          3D

 37 40  0  0  0  0  0  0  0  0999 V2000
  -11.9556   18.7761  -41.3289 C   0  0  0  0  0  0  0  0  0  0  0  0
  -13.3712   19.0499  -41.6396 C   0  0  0  0  0  0  0  0  0  0  0  0
  -13.7407   19.8034  -42.7586 C   0  0  0  0  0  0  0  0  0  0  0  0
  -15.0418   20.0709  -43.0704 C   0  0  0  0  0  0  0  0  0  0  0  0
  -15.5365   20.7746  -44.1136 O   0  0  0  0  0  0  0  0  0  0  0  0
  -15.2720   20.6644  -45.4574 C   0  0  0  0  0  0  0  0  0  0  0  0
  -14.5834   21.8695  -45.9943 C   0  0  0  0  0  0  0  0  0  0  0  0
  -13.6219   21.5373  -47.0897 C   0  0  0  0  0  0  0  0  0  0  0  0
  -11.9849   21.9966  -46.7713 S   0  0  0  0  0  6  0  0  0  0  0  0
  -11.1497   21.1168  -45.5219 C   0  0  0  0  0  0  0  0  0  0  0  0
  -11.9863   23.4915  -46.4328 O   0  0  0  0  0  0  0  0  0  0  0  0
  -11.1936   21.8194  -48.0727 O   0  0  0  0  0  0  0  0  0  0  0  0
  -16.0180   19.5456  -42.1970 C   0  0  0  0  0  0  0  0  0  0  0  0
  -15.6643   18.8185  -41.1161 C   0  0  0  0  0  0  0  0  0  0  0  0
  -16.7312   18.2795  -40.2150 C   0  0  0  0  0  0  0  0  0  0  0  0
  -14.3421   18.5647  -40.8288 C   0  0  0  0  0  0  0  0  0  0  0  0
  -14.0550   17.7590  -39.6247 C   0  0  0  0  0  0  0  0  0  0  0  0
  -13.6760   16.4266  -39.7260 C   0  0  0  0  0  0  0  0  0  0  0  0
  -13.4083   15.6761  -38.6002 C   0  0  0  0  0  0  0  0  0  0  0  0
  -13.5160   16.2491  -37.3510 C   0  0  0  0  0  0  0  0  0  0  0  0
  -13.8900   17.5699  -37.2172 C   0  0  0  0  0  0  0  0  0  0  0  0
  -13.9864   18.1241  -35.8414 C   0  0  0  0  0  0  0  0  0  0  0  0
  -14.3459   17.0536  -34.9879 O   0  0  0  0  0  0  0  0  0  0  0  0
  -15.6899   16.8992  -34.6431 C   0  0  0  0  0  0  0  0  0  0  0  0
  -16.6016   17.9076  -34.8695 C   0  0  0  0  0  0  0  0  0  0  0  0
  -17.9286   17.7529  -34.5280 C   0  0  0  0  0  0  0  0  0  0  0  0
  -18.3711   16.5705  -33.9465 C   0  0  0  0  0  0  0  0  0  0  0  0
  -17.4821   15.5357  -33.7044 C   0  0  0  0  0  0  0  0  0  0  0  0
  -16.1669   15.7431  -34.0652 C   0  0  0  0  0  0  0  0  0  0  0  0
  -18.1651   14.4597  -33.1167 O   0  0  0  0  0  0  0  0  0  0  0  0
  -19.2692   15.0431  -32.4518 C   0  0  0  0  0  0  0  0  0  0  0  0
  -19.6962   16.0949  -33.4718 C   0  0  1  0  0  0  0  0  0  0  0  0
  -20.4297   17.2326  -32.8125 C   0  0  0  0  0  0  0  0  0  0  0  0
  -21.8729   17.1531  -33.0829 C   0  0  0  0  0  0  0  0  0  0  0  0
  -22.6616   17.9491  -32.5071 O   0  0  0  0  0  0  0  0  0  0  0  0
  -22.4022   16.2272  -33.9552 O   0  0  0  0  0  0  0  0  0  0  0  0
  -14.1471   18.2815  -38.3546 C   0  0  0  0  0  0  0  0  0  0  0  0
  1  2  1  0
  2  3  2  0
  3  4  1  0
  4  5  1  0
  5  6  1  0
  6  7  1  0
  7  8  1  0
  8  9  1  0
  9 10  1  0
  9 11  2  0
  9 12  2  0
  4 13  2  0
 13 14  1  0
 14 15  1  0
 14 16  2  0
 16 17  1  0
 17 18  2  0
 18 19  1  0
 19 20  2  0
 20 21  1  0
 21 22  1  0
 22 23  1  0
 23 24  1  0
 24 25  2  0
 25 26  1  0
 26 27  2  0
 27 28  1  0
 28 29  2  0
 28 30  1  0
 30 31  1  0
 31 32  1  0
 32 33  1  1
 33 34  1  0
 34 35  2  0
 34 36  1  0
 21 37  2  0
 16  2  1  0
 37 17  1  0
 29 24  1  0
 32 27  1  0
M  END
$$$$
