
     RDKit          3D

 21 23  0  0  0  0  0  0  0  0999 V2000
  -19.1955   40.0986  -18.9741 N   0  0  0  0  0  0  0  0  0  0  0  0
  -18.8851   40.1046  -20.1327 C   0  0  0  0  0  0  0  0  0  0  0  0
  -18.4999   40.1347  -21.6270 C   0  0  0  0  0  0  0  0  0  0  0  0
  -18.4489   38.9853  -22.2497 C   0  0  0  0  0  0  0  0  0  0  0  0
  -18.8419   37.6850  -21.8416 N   0  0  0  0  0  0  0  0  0  0  0  0
  -18.6538   36.5167  -22.6125 C   0  0  0  0  0  0  0  0  0  0  0  0
  -17.9334   36.5690  -23.5976 O   0  0  0  0  0  0  0  0  0  0  0  0
  -19.3517   35.2920  -22.1454 C   0  0  0  0  0  0  0  0  0  0  0  0
  -20.7045   35.4262  -21.6960 C   0  0  0  0  0  0  0  0  0  0  0  0
  -21.3125   34.3198  -21.1411 C   0  0  0  0  0  0  0  0  0  0  0  0
  -20.5277   33.1229  -21.0642 C   0  0  0  0  0  0  0  0  0  0  0  0
  -19.3272   32.9675  -21.4436 C   0  0  0  0  0  0  0  0  0  0  0  0
  -18.7030   34.1310  -22.0271 C   0  0  0  0  0  0  0  0  0  0  0  0
  -17.4916   33.8766  -22.5267 F   0  0  0  0  0  0  0  0  0  0  0  0
  -17.7542   39.3949  -23.8637 S   0  0  0  0  0  0  0  0  0  0  0  0
  -17.6219   41.2046  -23.4509 C   0  0  0  0  0  0  0  0  0  0  0  0
  -18.1059   41.2881  -22.1676 C   0  0  0  0  0  0  0  0  0  0  0  0
  -18.1061   42.6457  -21.5025 C   0  0  0  0  0  0  0  0  0  0  0  0
  -17.0801   43.4819  -22.1798 C   0  0  0  0  0  0  0  0  0  0  0  0
  -17.4229   43.6301  -23.6347 C   0  0  0  0  0  0  0  0  0  0  0  0
  -17.1668   42.3122  -24.3022 C   0  0  0  0  0  0  0  0  0  0  0  0
  1  2  3  0
  2  3  1  0
  3  4  2  0
  4  5  1  0
  5  6  1  0
  6  7  2  0
  6  8  1  0
  8  9  2  0
  9 10  1  0
 10 11  2  0
 11 12  1  0
 12 13  2  0
 13 14  1  0
  4 15  1  0
 15 16  1  0
 16 17  2  0
 17 18  1  0
 18 19  1  0
 19 20  1  0
 20 21  1  0
 17  3  1  0
 13  8  1  0
 21 16  1  0
M  END
$$$$
