
     RDKit          3D

 31 32  0  0  0  0  0  0  0  0999 V2000
   -1.4300   21.6689  -20.9288 O   0  0  0  0  0  0  0  0  0  0  0  0
   -0.6967   21.7640  -22.2660 S   0  0  0  0  0  6  0  0  0  0  0  0
   -1.5476   20.9253  -23.2087 O   0  0  0  0  0  0  0  0  0  0  0  0
   -0.6246   23.4074  -22.7612 C   0  0  0  0  0  0  0  0  0  0  0  0
   -0.6106   23.7309  -24.0970 C   0  0  0  0  0  0  0  0  0  0  0  0
   -0.5637   25.0638  -24.5227 C   0  0  0  0  0  0  0  0  0  0  0  0
   -0.5312   26.0628  -23.5782 C   0  0  0  0  0  0  0  0  0  0  0  0
   -0.5453   25.7379  -22.2388 C   0  0  0  0  0  0  0  0  0  0  0  0
   -0.5919   24.4146  -21.8267 C   0  0  0  0  0  0  0  0  0  0  0  0
    0.8145   21.0025  -22.0360 N   0  0  0  0  0  0  0  0  0  0  0  0
    1.2341   19.8722  -22.8247 C   0  0  0  0  0  0  0  0  0  0  0  0
    0.7704   18.5430  -22.3405 C   0  0  0  0  0  0  0  0  0  0  0  0
   -0.5678   18.5249  -22.0099 F   0  0  0  0  0  0  0  0  0  0  0  0
    0.9521   17.5217  -23.2560 F   0  0  0  0  0  0  0  0  0  0  0  0
    1.4461   18.2480  -21.1499 F   0  0  0  0  0  0  0  0  0  0  0  0
    1.6879   21.5404  -21.0313 C   0  0  0  0  0  0  0  0  0  0  0  0
    2.3627   22.7306  -21.1839 C   0  0  0  0  0  0  0  0  0  0  0  0
    3.2043   23.2339  -20.2291 C   0  0  0  0  0  0  0  0  0  0  0  0
    3.4320   22.5603  -19.0264 C   0  0  0  0  0  0  0  0  0  0  0  0
    4.3361   23.1168  -18.0187 C   0  0  0  0  0  0  0  0  0  0  0  0
    5.5126   23.6399  -18.6155 O   0  0  0  0  0  0  0  0  0  0  0  0
    4.8085   22.0274  -17.0400 C   0  0  0  0  0  0  0  0  0  0  0  0
    5.7377   22.5756  -16.2033 F   0  0  0  0  0  0  0  0  0  0  0  0
    3.7522   21.4416  -16.4009 F   0  0  0  0  0  0  0  0  0  0  0  0
    5.4656   21.0886  -17.8283 F   0  0  0  0  0  0  0  0  0  0  0  0
    3.7891   24.2189  -17.1623 C   0  0  0  0  0  0  0  0  0  0  0  0
    4.8415   24.9217  -16.5678 F   0  0  0  0  0  0  0  0  0  0  0  0
    3.0548   23.6842  -16.0885 F   0  0  0  0  0  0  0  0  0  0  0  0
    2.9965   25.0418  -17.8900 F   0  0  0  0  0  0  0  0  0  0  0  0
    2.7726   21.3761  -18.8536 C   0  0  0  0  0  0  0  0  0  0  0  0
    1.9134   20.8782  -19.8466 C   0  0  0  0  0  0  0  0  0  0  0  0
  1  2  2  0
  2  3  2  0
  2  4  1  0
  4  5  2  0
  5  6  1  0
  6  7  2  0
  7  8  1  0
  8  9  2  0
  2 10  1  0
 10 11  1  0
 11 12  1  0
 12 13  1  0
 12 14  1  0
 12 15  1  0
 10 16  1  0
 16 17  2  0
 17 18  1  0
 18 19  2  0
 19 20  1  0
 20 21  1  0
 20 22  1  0
 22 23  1  0
 22 24  1  0
 22 25  1  0
 20 26  1  0
 26 27  1  0
 26 28  1  0
 26 29  1  0
 19 30  1  0
 30 31  2  0
  9  4  1  0
 31 16  1  0
M  END
$$$$
