
     RDKit          3D

 21 23  0  0  0  0  0  0  0  0999 V2000
  -17.2112   45.7954  -22.9988 C   0  0  0  0  0  0  0  0  0  0  0  0
  -17.1920   44.7180  -23.9082 O   0  0  0  0  0  0  0  0  0  0  0  0
  -17.4075   43.3999  -23.5164 C   0  0  0  0  0  0  0  0  0  0  0  0
  -17.9128   42.5433  -24.4596 C   0  0  0  0  0  0  0  0  0  0  0  0
  -18.1469   41.2299  -24.1329 C   0  0  0  0  0  0  0  0  0  0  0  0
  -17.8872   40.7437  -22.8756 C   0  0  0  0  0  0  0  0  0  0  0  0
  -18.1190   39.3598  -22.4824 C   0  0  0  0  0  0  0  0  0  0  0  0
  -17.5029   38.8282  -21.3879 C   0  0  0  0  0  0  0  0  0  0  0  0
  -17.7535   37.5159  -21.0563 C   0  0  0  0  0  0  0  0  0  0  0  0
  -17.2134   36.9707  -20.0565 O   0  0  0  0  0  0  0  0  0  0  0  0
  -18.6207   36.7991  -21.8523 C   0  0  0  0  0  0  0  0  0  0  0  0
  -18.9228   35.4829  -21.5876 C   0  0  0  0  0  0  0  0  0  0  0  0
  -19.7800   34.7128  -22.3430 C   0  0  0  0  0  0  0  0  0  0  0  0
  -20.0689   33.3863  -22.0554 O   0  0  0  0  0  0  0  0  0  0  0  0
  -19.9397   32.9627  -20.7122 C   0  0  0  0  0  0  0  0  0  0  0  0
  -20.3706   35.3192  -23.4414 C   0  0  0  0  0  0  0  0  0  0  0  0
  -20.0923   36.6361  -23.7383 C   0  0  0  0  0  0  0  0  0  0  0  0
  -19.2283   37.3771  -22.9589 C   0  0  0  0  0  0  0  0  0  0  0  0
  -18.9396   38.6257  -23.2072 O   0  0  0  0  0  0  0  0  0  0  0  0
  -17.3728   41.6450  -21.9396 C   0  0  0  0  0  0  0  0  0  0  0  0
  -17.1315   42.9644  -22.2479 C   0  0  0  0  0  0  0  0  0  0  0  0
  1  2  1  0
  2  3  1  0
  3  4  2  0
  4  5  1  0
  5  6  2  0
  6  7  1  0
  7  8  2  0
  8  9  1  0
  9 10  2  0
  9 11  1  0
 11 12  2  0
 12 13  1  0
 13 14  1  0
 14 15  1  0
 13 16  2  0
 16 17  1  0
 17 18  2  0
 18 19  1  0
  6 20  1  0
 20 21  2  0
 21  3  1  0
 19  7  1  0
 18 11  1  0
M  END
$$$$
