
     RDKit          3D

 11  9  0  0  0  0  0  0  0  0999 V2000
  -30.6827   21.8087  -32.4284 C   0  0  0  0  0  0  0  0  0  0  0  0
  -30.2515   21.7703  -31.0002 C   0  0  0  0  0  0  0  0  0  0  0  0
  -30.4380   22.7988  -30.2882 O   0  0  0  0  0  0  0  0  0  0  0  0
  -29.6587   20.6424  -30.4494 O   0  0  0  0  0  0  0  0  0  0  0  0
  -29.2872   20.7156  -29.0790 C   0  0  0  0  0  0  0  0  0  0  0  0
  -28.6563   19.4285  -28.6066 C   0  0  0  0  0  0  0  0  0  0  0  0
  -28.3003   19.5501  -27.2260 N   0  0  0  0  0  4  0  0  0  0  0  0
  -26.8783   19.6042  -27.0783 C   0  0  0  0  0  0  0  0  0  0  0  0
  -28.8896   20.6918  -26.5674 C   0  0  0  0  0  0  0  0  0  0  0  0
  -28.7964   18.3643  -26.5142 C   0  0  0  0  0  0  0  0  0  0  0  0
  -28.9856   20.2335  -28.5635 Cl  0  0  0  0  0 15  0  0  0  0  0  0
  1  2  1  0
  2  3  2  0
  2  4  1  0
  4  5  1  0
  5  6  1  0
  6  7  1  0
  7  8  1  0
  7  9  1  0
  7 10  1  0
M  CHG  2   7   1  11  -1
M  END
$$$$
