
     RDKit          3D

 32 37  0  0  0  0  0  0  0  0999 V2000
  -20.8745   43.2965  -22.8568 C   0  0  0  0  0  0  0  0  0  0  0  0
  -19.6992   42.9207  -23.7300 C   0  0  0  0  0  0  0  0  0  0  0  0
  -18.5819   42.3714  -22.9976 N   0  0  0  0  0  0  0  0  0  0  0  0
  -18.0649   41.1374  -23.1472 C   0  0  0  0  0  0  0  0  0  0  0  0
  -18.5768   40.1060  -24.0541 C   0  0  0  0  0  0  0  0  0  0  0  0
  -18.8081   40.5165  -25.2651 O   0  0  0  0  0  0  0  0  0  0  0  0
  -18.8465   38.7642  -23.7858 N   0  0  0  0  0  0  0  0  0  0  0  0
  -18.9859   37.8649  -24.9510 C   0  0  0  0  0  0  0  0  0  0  0  0
  -20.3667   37.4050  -25.3597 C   0  0  0  0  0  0  0  0  0  0  0  0
  -19.3090   36.4525  -24.8570 C   0  0  0  0  0  0  0  0  0  0  0  0
  -18.9932   38.1086  -22.5138 C   0  0  0  0  0  0  0  0  0  0  0  0
  -18.0052   38.3529  -21.4135 C   0  0  0  0  0  0  0  0  0  0  0  0
  -19.5147   38.6508  -21.2709 C   0  0  0  0  0  0  0  0  0  0  0  0
  -17.0314   41.0155  -22.2717 C   0  0  0  0  0  0  0  0  0  0  0  0
  -16.9123   42.1852  -21.5775 C   0  0  0  0  0  0  0  0  0  0  0  0
  -16.0050   42.5217  -20.5811 C   0  0  0  0  0  0  0  0  0  0  0  0
  -16.1319   43.7968  -20.0493 C   0  0  0  0  0  0  0  0  0  0  0  0
  -15.1720   43.9095  -19.1222 N   0  0  0  0  0  0  0  0  0  0  0  0
  -14.4834   42.7555  -19.0844 C   0  0  0  0  0  0  0  0  0  0  0  0
  -14.9937   41.8834  -19.9902 N   0  0  0  0  0  0  0  0  0  0  0  0
  -14.5682   40.5463  -20.2903 C   0  0  0  0  0  0  0  0  0  0  0  0
  -17.1210   44.6438  -20.5187 C   0  0  0  0  0  0  0  0  0  0  0  0
  -17.1528   45.9308  -19.8960 N   0  0  0  0  0  0  0  0  0  0  0  0
  -17.9616   46.9679  -20.4322 C   0  0  0  0  0  0  0  0  0  0  0  0
  -18.8885   46.8357  -21.4529 C   0  0  0  0  0  0  0  0  0  0  0  0
  -19.4733   48.0705  -21.7084 C   0  0  0  0  0  0  0  0  0  0  0  0
  -20.5265   48.3382  -22.7475 C   0  0  0  0  0  0  0  0  0  0  0  0
  -18.8971   48.9239  -20.8468 N   0  0  0  0  0  0  0  0  0  0  0  0
  -19.2263   50.3487  -20.7827 C   0  0  0  0  0  0  0  0  0  0  0  0
  -18.0079   48.2754  -20.0954 N   0  0  0  0  0  0  0  0  0  0  0  0
  -17.9733   44.2654  -21.4871 N   0  0  0  0  0  0  0  0  0  0  0  0
  -17.8903   43.0379  -22.0359 C   0  0  0  0  0  0  0  0  0  0  0  0
  1  2  1  0
  2  3  1  0
  3  4  1  0
  4  5  1  0
  5  6  2  0
  5  7  1  0
  7  8  1  0
  8  9  1  0
  9 10  1  0
  7 11  1  0
 11 12  1  0
 12 13  1  0
  4 14  2  0
 14 15  1  0
 15 16  2  0
 16 17  1  0
 17 18  1  0
 18 19  2  0
 19 20  1  0
 20 21  1  0
 17 22  2  0
 22 23  1  0
 23 24  1  0
 24 25  1  0
 25 26  2  0
 26 27  1  0
 26 28  1  0
 28 29  1  0
 28 30  1  0
 22 31  1  0
 31 32  2  0
 32  3  1  0
 10  8  1  0
 13 11  1  0
 32 15  1  0
 20 16  1  0
 30 24  2  0
M  END
$$$$
