
     RDKit          3D

 25 28  0  0  0  0  0  0  0  0999 V2000
  -23.1274   13.9154  -33.9363 C   0  0  0  0  0  0  0  0  0  0  0  0
  -22.3250   14.8397  -33.0450 C   0  0  2  0  0  0  0  0  0  0  0  0
  -23.2380   16.0240  -32.7285 C   0  0  0  0  0  0  0  0  0  0  0  0
  -22.8169   16.9980  -33.8262 C   0  0  0  0  0  0  0  0  0  0  0  0
  -21.3145   16.7776  -33.8288 C   0  0  0  0  0  0  0  0  0  0  0  0
  -21.2002   15.3559  -33.7646 N   0  0  0  0  0  0  0  0  0  0  0  0
  -19.9292   14.8926  -33.2892 C   0  0  0  0  0  0  0  0  0  0  0  0
  -19.5362   15.4324  -31.9618 C   0  0  0  0  0  0  0  0  0  0  0  0
  -18.1680   14.9139  -31.6067 C   0  0  0  0  0  0  0  0  0  0  0  0
  -17.7759   14.4187  -30.3805 C   0  0  0  0  0  0  0  0  0  0  0  0
  -16.4488   14.0424  -30.4466 C   0  0  0  0  0  0  0  0  0  0  0  0
  -15.5301   13.4984  -29.5732 C   0  0  0  0  0  0  0  0  0  0  0  0
  -14.2256   13.2157  -29.9210 C   0  0  0  0  0  0  0  0  0  0  0  0
  -13.2699   12.6471  -29.0044 C   0  0  0  0  0  0  0  0  0  0  0  0
  -12.5212   11.5627  -29.4253 C   0  0  0  0  0  0  0  0  0  0  0  0
  -11.5865   10.9699  -28.5917 C   0  0  0  0  0  0  0  0  0  0  0  0
  -11.3661   11.4353  -27.3141 C   0  0  0  0  0  0  0  0  0  0  0  0
  -10.3979   10.8286  -26.4365 C   0  0  0  0  0  0  0  0  0  0  0  0
   -9.6279   10.3406  -25.7291 N   0  0  0  0  0  0  0  0  0  0  0  0
  -12.1173   12.5208  -26.8963 C   0  0  0  0  0  0  0  0  0  0  0  0
  -13.0574   13.1175  -27.7339 C   0  0  0  0  0  0  0  0  0  0  0  0
  -13.8717   13.5168  -31.2405 C   0  0  0  0  0  0  0  0  0  0  0  0
  -14.7709   14.0595  -32.1286 C   0  0  0  0  0  0  0  0  0  0  0  0
  -16.0762   14.3315  -31.7451 C   0  0  0  0  0  0  0  0  0  0  0  0
  -17.1197   14.8395  -32.3812 O   0  0  0  0  0  0  0  0  0  0  0  0
  2  1  1  6
  2  3  1  0
  3  4  1  0
  4  5  1  0
  5  6  1  0
  6  7  1  0
  7  8  1  0
  8  9  1  0
  9 10  2  0
 10 11  1  0
 11 12  2  0
 12 13  1  0
 13 14  1  0
 14 15  2  0
 15 16  1  0
 16 17  2  0
 17 18  1  0
 18 19  3  0
 17 20  1  0
 20 21  2  0
 13 22  2  0
 22 23  1  0
 23 24  2  0
 24 25  1  0
  6  2  1  0
 25  9  1  0
 24 11  1  0
 21 14  1  0
M  END
$$$$
