
     RDKit          3D

 32 36  0  0  0  0  0  0  0  0999 V2000
  -16.0545   42.2785  -18.8121 N   0  0  0  0  0  0  0  0  0  0  0  0
  -16.6990   41.4128  -19.7454 C   0  0  0  0  0  0  0  0  0  0  0  0
  -16.1663   41.2718  -21.0041 C   0  0  0  0  0  0  0  0  0  0  0  0
  -16.7784   40.4483  -21.8927 C   0  0  0  0  0  0  0  0  0  0  0  0
  -17.9287   39.7442  -21.5646 C   0  0  0  0  0  0  0  0  0  0  0  0
  -18.4895   38.8937  -22.5946 C   0  0  0  0  0  0  0  0  0  0  0  0
  -18.2924   37.5419  -22.5652 C   0  0  0  0  0  0  0  0  0  0  0  0
  -18.8304   36.7553  -23.5549 C   0  0  0  0  0  0  0  0  0  0  0  0
  -19.5728   37.3466  -24.5806 C   0  0  0  0  0  0  0  0  0  0  0  0
  -20.0848   36.5469  -25.5287 N   0  0  0  0  0  0  0  0  0  0  0  0
  -20.7968   37.0833  -26.5150 C   0  0  0  0  0  0  0  0  0  0  0  0
  -21.0305   38.4373  -26.6025 C   0  0  0  0  0  0  0  0  0  0  0  0
  -21.7692   38.9328  -27.6457 C   0  0  0  0  0  0  0  0  0  0  0  0
  -21.9836   40.2814  -27.7135 C   0  0  0  0  0  0  0  0  0  0  0  0
  -21.4599   41.0798  -26.7499 C   0  0  0  0  0  0  0  0  0  0  0  0
  -21.6674   42.3126  -26.8309 O   0  0  0  0  0  0  0  0  0  0  0  0
  -20.7092   40.5985  -25.6851 N   0  0  0  0  0  0  0  0  0  0  0  0
  -20.2808   41.6153  -24.8522 C   0  0  0  0  0  0  0  0  0  0  0  0
  -20.9868   42.1170  -23.7430 C   0  0  0  0  0  0  0  0  0  0  0  0
  -20.4081   43.0207  -22.9028 C   0  0  0  0  0  0  0  0  0  0  0  0
  -19.1183   43.4627  -23.1219 C   0  0  0  0  0  0  0  0  0  0  0  0
  -18.3874   42.9982  -24.1974 C   0  0  0  0  0  0  0  0  0  0  0  0
  -16.9900   43.4775  -24.4337 C   0  0  0  0  0  0  0  0  0  0  0  0
  -16.8992   44.7905  -24.0565 F   0  0  0  0  0  0  0  0  0  0  0  0
  -16.1756   42.6954  -23.6349 F   0  0  0  0  0  0  0  0  0  0  0  0
  -16.6858   43.2880  -25.7814 F   0  0  0  0  0  0  0  0  0  0  0  0
  -18.9664   42.0934  -25.0390 C   0  0  0  0  0  0  0  0  0  0  0  0
  -20.5116   39.3042  -25.6312 C   0  0  0  0  0  0  0  0  0  0  0  0
  -19.7716   38.7368  -24.6058 C   0  0  0  0  0  0  0  0  0  0  0  0
  -19.2251   39.4983  -23.6063 C   0  0  0  0  0  0  0  0  0  0  0  0
  -18.4260   39.9076  -20.3140 C   0  0  0  0  0  0  0  0  0  0  0  0
  -17.8101   40.7262  -19.4435 N   0  0  0  0  0  0  0  0  0  0  0  0
  1  2  1  0
  2  3  2  0
  3  4  1  0
  4  5  2  0
  5  6  1  0
  6  7  2  0
  7  8  1  0
  8  9  2  0
  9 10  1  0
 10 11  2  0
 11 12  1  0
 12 13  1  0
 13 14  2  0
 14 15  1  0
 15 16  2  0
 15 17  1  0
 17 18  1  0
 18 19  2  0
 19 20  1  0
 20 21  2  0
 21 22  1  0
 22 23  1  0
 23 24  1  0
 23 25  1  0
 23 26  1  0
 22 27  2  0
 17 28  1  0
 28 29  1  0
 29 30  2  0
  5 31  1  0
 31 32  2  0
 32  2  1  0
 30  6  1  0
 29  9  1  0
 28 12  2  0
 27 18  1  0
M  END
$$$$
