
     RDKit          3D

 33 36  0  0  0  0  0  0  0  0999 V2000
  -10.3109   16.5887  -39.3501 C   0  0  0  0  0  0  0  0  0  0  0  0
  -10.4253   17.9636  -39.8148 N   0  0  0  0  0  0  0  0  0  0  0  0
   -9.1028   18.4356  -40.1198 C   0  0  0  0  0  0  0  0  0  0  0  0
  -11.3076   18.0400  -40.9716 C   0  0  0  0  0  0  0  0  0  0  0  0
  -12.6566   17.5468  -40.5364 C   0  0  0  0  0  0  0  0  0  0  0  0
  -13.0584   16.3048  -40.9838 C   0  0  0  0  0  0  0  0  0  0  0  0
  -14.2952   15.8295  -40.6014 C   0  0  0  0  0  0  0  0  0  0  0  0
  -15.0871   16.6249  -39.7783 C   0  0  0  0  0  0  0  0  0  0  0  0
  -14.7035   17.8676  -39.3211 C   0  0  0  0  0  0  0  0  0  0  0  0
  -15.5023   18.6898  -38.4877 N   0  0  0  0  0  0  0  0  0  0  0  0
  -16.8825   18.3780  -38.1704 C   0  0  0  0  0  0  0  0  0  0  0  0
  -17.0950   17.4153  -37.2962 C   0  0  0  0  0  0  0  0  0  0  0  0
  -16.0341   16.6332  -36.6158 C   0  0  0  0  0  0  0  0  0  0  0  0
  -14.8082   16.7838  -36.8312 O   0  0  0  0  0  0  0  0  0  0  0  0
  -16.6873   15.7442  -35.7327 N   0  0  0  0  0  0  0  0  0  0  0  0
  -18.0881   15.9542  -35.8467 C   0  0  0  0  0  0  0  0  0  0  0  0
  -19.1376   15.3422  -35.1780 C   0  0  0  0  0  0  0  0  0  0  0  0
  -20.4410   15.7124  -35.4220 C   0  0  0  0  0  0  0  0  0  0  0  0
  -21.5116   15.0407  -34.6982 C   0  0  0  0  0  0  0  0  0  0  0  0
  -22.0058   15.5879  -33.6936 O   0  0  0  0  0  0  0  0  0  0  0  0
  -21.9549   13.7811  -35.1651 N   0  0  0  0  0  0  0  0  0  0  0  0
  -21.5061   13.3548  -36.4972 C   0  0  0  0  0  0  0  0  0  0  0  0
  -22.8181   12.9353  -34.3665 C   0  0  0  0  0  0  0  0  0  0  0  0
  -20.6999   16.6983  -36.3367 C   0  0  0  0  0  0  0  0  0  0  0  0
  -19.6772   17.3280  -37.0208 C   0  0  0  0  0  0  0  0  0  0  0  0
  -18.3806   16.9470  -36.7700 C   0  0  0  0  0  0  0  0  0  0  0  0
  -17.9564   19.0425  -38.8908 C   0  0  0  0  0  0  0  0  0  0  0  0
  -18.3909   20.2820  -38.5126 C   0  0  0  0  0  0  0  0  0  0  0  0
  -19.3460   20.9261  -39.2631 C   0  0  0  0  0  0  0  0  0  0  0  0
  -19.8896   20.3669  -40.3939 C   0  0  0  0  0  0  0  0  0  0  0  0
  -19.4306   19.1130  -40.7517 C   0  0  0  0  0  0  0  0  0  0  0  0
  -18.4791   18.4552  -40.0162 C   0  0  0  0  0  0  0  0  0  0  0  0
  -13.4546   18.3239  -39.7196 C   0  0  0  0  0  0  0  0  0  0  0  0
  1  2  1  0
  2  3  1  0
  2  4  1  0
  4  5  1  0
  5  6  2  0
  6  7  1  0
  7  8  2  0
  8  9  1  0
  9 10  1  0
 10 11  1  0
 11 12  2  0
 12 13  1  0
 13 14  2  0
 13 15  1  0
 15 16  1  0
 16 17  2  0
 17 18  1  0
 18 19  1  0
 19 20  2  0
 19 21  1  0
 21 22  1  0
 21 23  1  0
 18 24  2  0
 24 25  1  0
 25 26  2  0
 11 27  1  0
 27 28  2  0
 28 29  1  0
 29 30  2  0
 30 31  1  0
 31 32  2  0
  9 33  2  0
 33  5  1  0
 26 12  1  0
 32 27  1  0
 26 16  1  0
M  END
$$$$
