
     RDKit          3D

 40 45  0  0  0  0  0  0  0  0999 V2000
  -18.7928   38.7273  -21.0096 N   0  0  0  0  0  0  0  0  0  0  0  0
  -18.8203   39.9495  -20.9843 C   0  0  0  0  0  0  0  0  0  0  0  0
  -18.8718   41.3438  -20.9691 C   0  0  0  0  0  0  0  0  0  0  0  0
  -17.5259   42.0158  -21.0358 C   0  0  0  0  0  0  0  0  0  0  0  0
  -16.4619   41.4202  -20.2994 N   0  0  0  0  0  0  0  0  0  0  0  0
  -15.4360   42.1106  -19.7773 C   0  0  0  0  0  0  0  0  0  0  0  0
  -14.5597   41.2576  -19.1401 C   0  0  0  0  0  0  0  0  0  0  0  0
  -13.3436   41.6729  -18.4627 C   0  0  0  0  0  0  0  0  0  0  0  0
  -12.2857   40.8059  -18.3347 N   0  0  0  0  0  0  0  0  0  0  0  0
  -11.1668   41.2121  -17.7091 C   0  0  0  0  0  0  0  0  0  0  0  0
  -11.0233   42.4375  -17.1942 N   0  0  0  0  0  0  0  0  0  0  0  0
  -12.0377   43.3457  -17.2876 C   0  0  0  0  0  0  0  0  0  0  0  0
  -12.1990   44.6180  -16.8852 N   0  0  0  0  0  0  0  0  0  0  0  0
  -13.4445   45.0155  -17.2659 C   0  0  0  0  0  0  0  0  0  0  0  0
  -14.0669   43.9760  -17.9148 C   0  0  0  0  0  0  0  0  0  0  0  0
  -13.1795   42.9223  -17.9285 C   0  0  0  0  0  0  0  0  0  0  0  0
  -15.1233   39.9996  -19.3102 C   0  0  0  0  0  0  0  0  0  0  0  0
  -16.2706   40.1467  -20.0150 N   0  0  0  0  0  0  0  0  0  0  0  0
  -17.1575   42.6828  -22.3382 C   0  0  0  0  0  0  0  0  0  0  0  0
  -18.2215   43.6241  -22.0232 N   0  0  0  0  0  0  0  0  0  0  0  0
  -18.1853   44.9224  -22.5683 C   0  0  0  0  0  0  0  0  0  0  0  0
  -18.9593   45.8285  -21.6018 C   0  0  0  0  0  0  0  0  0  0  0  0
  -20.3304   46.0835  -22.1891 C   0  0  0  0  0  0  0  0  0  0  0  0
  -20.1161   46.9627  -23.3268 N   0  0  0  0  0  0  0  0  0  0  0  0
  -20.9540   48.0677  -23.6285 C   0  0  0  0  0  0  0  0  0  0  0  0
  -20.6723   48.7420  -24.6540 O   0  0  0  0  0  0  0  0  0  0  0  0
  -22.1036   48.4873  -22.8583 C   0  0  0  0  0  0  0  0  0  0  0  0
  -22.4237   49.8129  -22.7537 C   0  0  0  0  0  0  0  0  0  0  0  0
  -23.5257   50.2307  -22.0163 C   0  0  0  0  0  0  0  0  0  0  0  0
  -24.3029   49.3179  -21.3854 N   0  0  0  0  0  0  0  0  0  0  0  0
  -24.0248   48.0090  -21.4624 C   0  0  0  0  0  0  0  0  0  0  0  0
  -24.8810   46.9828  -20.7702 C   0  0  0  0  0  0  0  0  0  0  0  0
  -25.2140   45.9488  -21.6059 F   0  0  0  0  0  0  0  0  0  0  0  0
  -24.1679   46.4632  -19.6856 F   0  0  0  0  0  0  0  0  0  0  0  0
  -25.9908   47.5920  -20.2518 F   0  0  0  0  0  0  0  0  0  0  0  0
  -22.9319   47.5837  -22.1929 C   0  0  0  0  0  0  0  0  0  0  0  0
  -22.6665   46.2670  -22.2611 F   0  0  0  0  0  0  0  0  0  0  0  0
  -18.9569   46.6289  -24.1483 C   0  0  0  0  0  0  0  0  0  0  0  0
  -18.7092   45.1266  -23.9366 C   0  0  0  0  0  0  0  0  0  0  0  0
  -17.6998   43.5281  -20.6412 C   0  0  0  0  0  0  0  0  0  0  0  0
  1  2  3  0
  2  3  1  0
  3  4  1  0
  4  5  1  0
  5  6  1  0
  6  7  2  0
  7  8  1  0
  8  9  2  0
  9 10  1  0
 10 11  2  0
 11 12  1  0
 12 13  1  0
 13 14  1  0
 14 15  2  0
 15 16  1  0
  7 17  1  0
 17 18  2  0
  4 19  1  0
 19 20  1  0
 20 21  1  0
 21 22  1  0
 22 23  1  0
 23 24  1  0
 24 25  1  0
 25 26  2  0
 25 27  1  0
 27 28  2  0
 28 29  1  0
 29 30  2  0
 30 31  1  0
 31 32  1  0
 32 33  1  0
 32 34  1  0
 32 35  1  0
 31 36  2  0
 36 37  1  0
 24 38  1  0
 38 39  1  0
 20 40  1  0
 40  4  1  0
 18  5  1  0
 39 21  1  0
 16  8  1  0
 36 27  1  0
 16 12  2  0
M  END
$$$$
