
     RDKit          3D

 26 29  0  0  0  0  0  0  0  0999 V2000
  -29.7347   24.9192  -30.0570 C   0  0  0  0  0  0  0  0  0  0  0  0
  -28.9731   24.2142  -31.1228 C   0  0  1  0  0  0  0  0  0  0  0  0
  -27.8903   25.1438  -31.6882 C   0  0  0  0  0  0  0  0  0  0  0  0
  -26.9975   24.1690  -32.3562 C   0  0  0  0  0  0  0  0  0  0  0  0
  -26.0892   24.2612  -33.3848 C   0  0  0  0  0  0  0  0  0  0  0  0
  -25.3499   23.1829  -33.8429 C   0  0  0  0  0  0  0  0  0  0  0  0
  -25.5415   21.9672  -33.2328 C   0  0  0  0  0  0  0  0  0  0  0  0
  -26.4464   21.8644  -32.2045 C   0  0  0  0  0  0  0  0  0  0  0  0
  -27.1905   22.9511  -31.7442 C   0  0  0  0  0  0  0  0  0  0  0  0
  -28.1889   23.0850  -30.6975 N   0  0  0  0  0  0  0  0  0  0  0  0
  -28.2494   22.2259  -29.5929 C   0  0  0  0  0  0  0  0  0  0  0  0
  -27.4552   21.2414  -29.5391 O   0  0  0  0  0  0  0  0  0  0  0  0
  -29.1939   22.3874  -28.4612 C   0  0  0  0  0  0  0  0  0  0  0  0
  -29.2429   21.1282  -27.6456 C   0  0  0  0  0  0  0  0  0  0  0  0
  -29.0024   21.1814  -26.3224 N   0  0  0  0  0  0  0  0  0  0  0  0
  -29.0570   20.0235  -25.6411 C   0  0  0  0  0  0  0  0  0  0  0  0
  -28.8361   20.0521  -24.4079 O   0  0  0  0  0  0  0  0  0  0  0  0
  -29.3450   18.8096  -26.2408 C   0  0  0  0  0  0  0  0  0  0  0  0
  -29.5858   18.8034  -27.6055 C   0  0  0  0  0  0  0  0  0  0  0  0
  -29.8811   17.5516  -28.2177 N   0  0  0  0  0  0  0  0  0  0  0  0
  -29.8817   16.3880  -27.3727 C   0  0  0  0  0  0  0  0  0  0  0  0
  -30.4787   15.2139  -28.1072 C   0  0  0  0  0  0  0  0  0  0  0  0
  -29.9673   15.1776  -29.4019 O   0  0  0  0  0  0  0  0  0  0  0  0
  -30.6046   16.1914  -30.1232 C   0  0  0  0  0  0  0  0  0  0  0  0
  -30.1565   17.5472  -29.6332 C   0  0  0  0  0  0  0  0  0  0  0  0
  -29.5241   19.9604  -28.2453 N   0  0  0  0  0  0  0  0  0  0  0  0
  2  1  1  1
  2  3  1  0
  3  4  1  0
  4  5  2  0
  5  6  1  0
  6  7  2  0
  7  8  1  0
  8  9  2  0
  9 10  1  0
 10 11  1  0
 11 12  2  0
 11 13  1  0
 13 14  1  0
 14 15  2  0
 15 16  1  0
 16 17  2  0
 16 18  1  0
 18 19  2  0
 19 20  1  0
 20 21  1  0
 21 22  1  0
 22 23  1  0
 23 24  1  0
 24 25  1  0
 19 26  1  0
 10  2  1  0
 26 14  1  0
  9  4  1  0
 25 20  1  0
M  END
$$$$
