
     RDKit          3D

 23 25  0  0  0  0  0  0  0  0999 V2000
  -18.0455   34.1654  -23.2776 C   0  0  0  0  0  0  0  0  0  0  0  0
  -18.9884   35.2643  -22.8453 C   0  0  0  0  0  0  0  0  0  0  0  0
  -19.1159   36.2549  -23.8442 O   0  0  0  0  0  0  0  0  0  0  0  0
  -20.0494   37.1987  -23.3210 C   0  0  0  0  0  0  0  0  0  0  0  0
  -19.3320   38.2786  -22.6171 C   0  0  0  0  0  0  0  0  0  0  0  0
  -19.3697   38.2849  -21.2576 N   0  0  0  0  0  0  0  0  0  0  0  0
  -18.7114   39.3509  -20.8146 C   0  0  0  0  0  0  0  0  0  0  0  0
  -18.4968   39.7829  -19.5231 C   0  0  0  0  0  0  0  0  0  0  0  0
  -19.0217   38.9951  -18.4310 N   0  0  0  0  0  0  0  0  0  0  0  0
  -17.8179   40.9047  -19.3088 N   0  0  0  0  0  0  0  0  0  0  0  0
  -17.3564   41.5926  -20.3699 C   0  0  0  0  0  0  0  0  0  0  0  0
  -16.6676   42.7772  -20.1270 C   0  0  0  0  0  0  0  0  0  0  0  0
  -16.2042   43.5105  -21.1789 C   0  0  0  0  0  0  0  0  0  0  0  0
  -16.4049   43.1012  -22.4736 C   0  0  0  0  0  0  0  0  0  0  0  0
  -17.0952   41.9109  -22.7520 C   0  0  0  0  0  0  0  0  0  0  0  0
  -17.5515   41.1888  -21.6901 C   0  0  0  0  0  0  0  0  0  0  0  0
  -18.2543   40.0203  -21.9462 C   0  0  0  0  0  0  0  0  0  0  0  0
  -18.6374   39.3523  -23.0483 N   0  0  0  0  0  0  0  0  0  0  0  0
  -18.3791   39.6448  -24.4242 C   0  0  0  0  0  0  0  0  0  0  0  0
  -19.3963   40.4344  -25.1677 C   0  0  0  0  0  0  0  0  0  0  0  0
  -19.0513   40.6854  -26.6431 C   0  0  0  0  0  0  0  0  0  0  0  0
  -20.7295   39.6655  -25.2601 C   0  0  0  0  0  0  0  0  0  0  0  0
  -19.6017   41.6649  -24.6064 O   0  0  0  0  0  0  0  0  0  0  0  0
  1  2  1  0
  2  3  1  0
  3  4  1  0
  4  5  1  0
  5  6  2  0
  6  7  1  0
  7  8  2  0
  8  9  1  0
  8 10  1  0
 10 11  2  0
 11 12  1  0
 12 13  2  0
 13 14  1  0
 14 15  2  0
 15 16  1  0
 16 17  2  0
 17 18  1  0
 18 19  1  0
 19 20  1  0
 20 21  1  0
 20 22  1  0
 20 23  1  0
 18  5  1  0
 17  7  1  0
 16 11  1  0
M  END
$$$$
