
     RDKit          3D

 13 13  0  0  0  0  0  0  0  0999 V2000
  -20.0387   33.3192  -22.1714 N   0  0  0  0  0  0  0  0  0  0  0  0
  -18.4154   33.8507  -22.4416 S   0  0  0  0  0  6  0  0  0  0  0  0
  -17.5158   33.4024  -21.3129 O   0  0  0  0  0  0  0  0  0  0  0  0
  -17.9232   33.1896  -23.6987 O   0  0  0  0  0  0  0  0  0  0  0  0
  -18.3642   35.5932  -22.5592 C   0  0  0  0  0  0  0  0  0  0  0  0
  -17.3530   36.3326  -21.9695 C   0  0  0  0  0  0  0  0  0  0  0  0
  -17.3608   37.7073  -22.0935 C   0  0  0  0  0  0  0  0  0  0  0  0
  -18.3280   38.4034  -22.7789 C   0  0  0  0  0  0  0  0  0  0  0  0
  -18.3169   39.8566  -22.8974 C   0  0  0  0  0  0  0  0  0  0  0  0
  -17.3642   40.4719  -22.3576 O   0  0  0  0  0  0  0  0  0  0  0  0
  -19.2801   40.5753  -23.5590 O   0  0  0  0  0  0  0  0  0  0  0  0
  -19.3417   37.6604  -23.3698 C   0  0  0  0  0  0  0  0  0  0  0  0
  -19.3524   36.2708  -23.2565 C   0  0  0  0  0  0  0  0  0  0  0  0
  1  2  1  0
  2  3  2  0
  2  4  2  0
  2  5  1  0
  5  6  2  0
  6  7  1  0
  7  8  2  0
  8  9  1  0
  9 10  2  0
  9 11  1  0
  8 12  1  0
 12 13  2  0
 13  5  1  0
M  END
$$$$
