
     RDKit          3D

 19 20  0  0  0  0  0  0  0  0999 V2000
  -19.9838   15.7657  -34.4513 N   0  0  0  0  0  0  0  0  0  0  0  0
  -18.9967   15.4207  -33.4871 C   0  0  0  0  0  0  0  0  0  0  0  0
  -18.7301   14.2093  -33.2127 O   0  0  0  0  0  0  0  0  0  0  0  0
  -18.3121   16.4746  -32.8349 N   0  0  0  0  0  0  0  0  0  0  0  0
  -17.3194   16.1759  -31.8452 C   0  0  0  0  0  0  0  0  0  0  0  0
  -16.8335   14.5420  -31.2954 S   0  0  0  0  0  0  0  0  0  0  0  0
  -15.6244   15.0936  -30.1302 C   0  0  0  0  0  0  0  0  0  0  0  0
  -14.8025   14.2132  -29.2830 C   0  0  0  0  0  0  0  0  0  0  0  0
  -14.2945   13.0434  -29.8061 C   0  0  0  0  0  0  0  0  0  0  0  0
  -13.5177   12.1971  -29.0292 C   0  0  0  0  0  0  0  0  0  0  0  0
  -13.2263   12.4903  -27.7160 C   0  0  0  0  0  0  0  0  0  0  0  0
  -12.4653   11.6704  -26.9395 F   0  0  0  0  0  0  0  0  0  0  0  0
  -13.7368   13.6627  -27.1957 C   0  0  0  0  0  0  0  0  0  0  0  0
  -14.5174   14.5130  -27.9766 C   0  0  0  0  0  0  0  0  0  0  0  0
  -15.6705   16.4140  -30.2335 C   0  0  0  0  0  0  0  0  0  0  0  0
  -16.5197   17.0135  -31.0953 C   0  0  0  0  0  0  0  0  0  0  0  0
  -16.6458   18.4797  -31.2837 C   0  0  0  0  0  0  0  0  0  0  0  0
  -15.7930   19.3588  -30.5924 N   0  0  0  0  0  0  0  0  0  0  0  0
  -17.5040   18.9345  -32.0516 O   0  0  0  0  0  0  0  0  0  0  0  0
  1  2  1  0
  2  3  2  0
  2  4  1  0
  4  5  1  0
  5  6  1  0
  6  7  1  0
  7  8  1  0
  8  9  2  0
  9 10  1  0
 10 11  2  0
 11 12  1  0
 11 13  1  0
 13 14  2  0
  7 15  2  0
 15 16  1  0
 16 17  1  0
 17 18  1  0
 17 19  2  0
 16  5  2  0
 14  8  1  0
M  END
$$$$
