
     RDKit          3D

 33 34  0  0  0  0  0  0  0  0999 V2000
  -19.2192   20.4086  -30.1539 C   0  0  0  0  0  0  0  0  0  0  0  0
  -18.8297   19.3749  -31.0208 O   0  0  0  0  0  0  0  0  0  0  0  0
  -17.5111   19.1595  -31.3723 C   0  0  0  0  0  0  0  0  0  0  0  0
  -16.5474   20.0197  -30.8290 C   0  0  0  0  0  0  0  0  0  0  0  0
  -15.2086   19.8846  -31.1204 C   0  0  0  0  0  0  0  0  0  0  0  0
  -14.2069   20.7244  -30.5985 N   0  0  0  0  0  0  0  0  0  0  0  0
  -14.8358   18.8728  -31.9676 C   0  0  0  0  0  0  0  0  0  0  0  0
  -13.1240   18.6631  -32.3694 Cl  0  0  0  0  0  0  0  0  0  0  0  0
  -15.7781   18.0417  -32.4908 C   0  0  0  0  0  0  0  0  0  0  0  0
  -17.1538   18.1469  -32.2180 C   0  0  0  0  0  0  0  0  0  0  0  0
  -18.0690   17.2060  -32.8334 C   0  0  0  0  0  0  0  0  0  0  0  0
  -17.5972   16.3087  -33.6023 O   0  0  0  0  0  0  0  0  0  0  0  0
  -19.4469   17.1855  -32.6627 N   0  0  0  0  0  0  0  0  0  0  0  0
  -20.3326   16.2216  -33.3000 C   0  0  0  0  0  0  0  0  0  0  0  0
  -20.9336   15.3738  -32.1941 C   0  0  0  0  0  0  0  0  0  0  0  0
  -21.6737   14.1907  -32.8034 C   0  0  0  0  0  0  0  0  0  0  0  0
  -22.0965   14.4437  -34.1324 N   0  0  0  0  0  0  0  0  0  0  0  0
  -21.5493   13.6287  -35.1564 C   0  0  0  0  0  0  0  0  0  0  0  0
  -22.0362   12.1720  -35.0665 C   0  0  0  0  0  0  0  0  0  0  0  0
  -23.5237   12.1437  -35.1950 C   0  0  0  0  0  0  0  0  0  0  0  0
  -24.0411   10.8640  -35.1077 O   0  0  0  0  0  0  0  0  0  0  0  0
  -24.0253    9.9957  -34.0497 C   0  0  0  0  0  0  0  0  0  0  0  0
  -24.6044    8.7263  -34.2557 C   0  0  0  0  0  0  0  0  0  0  0  0
  -24.6513    7.7739  -33.2730 C   0  0  0  0  0  0  0  0  0  0  0  0
  -24.1134    8.0666  -32.0395 C   0  0  0  0  0  0  0  0  0  0  0  0
  -24.1529    7.1402  -31.0665 F   0  0  0  0  0  0  0  0  0  0  0  0
  -23.5456    9.2870  -31.8079 C   0  0  0  0  0  0  0  0  0  0  0  0
  -23.4993   10.2530  -32.8066 C   0  0  0  0  0  0  0  0  0  0  0  0
  -22.4325   15.7812  -34.4678 C   0  0  0  0  0  0  0  0  0  0  0  0
  -21.4053   16.8184  -34.1031 C   0  0  0  0  0  0  0  0  0  0  0  0
  -21.0008   17.4954  -35.2376 O   0  0  0  0  0  0  0  0  0  0  0  0
  -21.3475   18.8337  -35.2384 C   0  0  0  0  0  0  0  0  0  0  0  0
  -20.4842   15.2578  -32.7810 O   0  0  0  0  0  0  0  0  0  0  0  0
  1  2  1  0
  2  3  1  0
  3  4  2  0
  4  5  1  0
  5  6  1  0
  5  7  2  0
  7  8  1  0
  7  9  1  0
  9 10  2  0
 10 11  1  0
 11 12  2  0
 11 13  1  0
 13 14  1  0
 14 15  1  0
 15 16  1  0
 16 17  1  0
 17 18  1  0
 18 19  1  0
 19 20  1  0
 20 21  1  0
 21 22  1  0
 22 23  2  0
 23 24  1  0
 24 25  2  0
 25 26  1  0
 25 27  1  0
 27 28  2  0
 17 29  1  0
 29 30  1  0
 30 31  1  0
 31 32  1  0
 10  3  1  0
 30 14  1  0
 28 22  1  0
M  END
$$$$
