
     RDKit          3D

 27 28  0  0  0  0  0  0  0  0999 V2000
  -22.8089   32.7529  -21.6988 C   0  0  0  0  0  0  0  0  0  0  0  0
  -21.7333   32.0703  -22.3056 O   0  0  0  0  0  0  0  0  0  0  0  0
  -20.4464   32.5672  -22.2646 C   0  0  0  0  0  0  0  0  0  0  0  0
  -20.1716   33.9011  -22.4155 C   0  0  0  0  0  0  0  0  0  0  0  0
  -18.8596   34.3554  -22.3667 C   0  0  0  0  0  0  0  0  0  0  0  0
  -18.6191   35.7838  -22.5319 C   0  0  0  0  0  0  0  0  0  0  0  0
  -18.0641   36.5728  -21.6295 C   0  0  0  0  0  0  0  0  0  0  0  0
  -17.7710   37.9880  -21.9373 C   0  0  0  0  0  0  0  0  0  0  0  0
  -18.2072   38.4185  -23.0322 O   0  0  0  0  0  0  0  0  0  0  0  0
  -17.0039   38.8234  -20.9866 C   0  0  0  0  0  0  0  0  0  0  0  0
  -17.6653   40.0866  -20.6545 C   0  0  0  0  0  0  0  0  0  0  0  0
  -18.9043   40.1708  -20.6426 O   0  0  0  0  0  0  0  0  0  0  0  0
  -16.8577   41.2414  -20.3390 C   0  0  0  0  0  0  0  0  0  0  0  0
  -16.8250   42.3278  -21.1045 C   0  0  0  0  0  0  0  0  0  0  0  0
  -17.4262   43.6068  -20.7669 C   0  0  0  0  0  0  0  0  0  0  0  0
  -18.6377   44.0553  -21.2282 C   0  0  0  0  0  0  0  0  0  0  0  0
  -19.1721   45.2959  -20.8715 C   0  0  0  0  0  0  0  0  0  0  0  0
  -18.4505   46.1031  -20.0198 C   0  0  0  0  0  0  0  0  0  0  0  0
  -18.9412   47.3438  -19.6378 O   0  0  0  0  0  0  0  0  0  0  0  0
  -17.2267   45.6790  -19.5383 C   0  0  0  0  0  0  0  0  0  0  0  0
  -16.5391   46.5292  -18.6832 O   0  0  0  0  0  0  0  0  0  0  0  0
  -15.2486   46.1477  -18.2549 C   0  0  0  0  0  0  0  0  0  0  0  0
  -16.7299   44.4451  -19.9130 C   0  0  0  0  0  0  0  0  0  0  0  0
  -17.8639   33.4285  -22.1642 C   0  0  0  0  0  0  0  0  0  0  0  0
  -18.1306   32.0622  -22.0085 C   0  0  0  0  0  0  0  0  0  0  0  0
  -19.4356   31.6236  -22.0588 C   0  0  0  0  0  0  0  0  0  0  0  0
  -19.7555   30.2801  -21.9105 O   0  0  0  0  0  0  0  0  0  0  0  0
  1  2  1  0
  2  3  1  0
  3  4  2  0
  4  5  1  0
  5  6  1  0
  6  7  2  0
  7  8  1  0
  8  9  2  0
  8 10  1  0
 10 11  1  0
 11 12  2  0
 11 13  1  0
 13 14  2  0
 14 15  1  0
 15 16  2  0
 16 17  1  0
 17 18  2  0
 18 19  1  0
 18 20  1  0
 20 21  1  0
 21 22  1  0
 20 23  2  0
  5 24  2  0
 24 25  1  0
 25 26  2  0
 26 27  1  0
 26  3  1  0
 23 15  1  0
M  END
$$$$
