
     RDKit          3D

 42 47  0  0  0  0  0  0  0  0999 V2000
  -17.9236   40.5575  -22.6316 Cl  0  0  0  0  0  0  0  0  0  0  0  0
  -19.0791   39.8748  -23.8603 O   0  0  0  0  0  0  0  0  0  0  0  0
  -19.9410   39.7731  -22.9602 C   0  0  0  0  0  0  0  0  0  0  0  0
  -20.9867   38.7114  -23.1339 C   0  0  0  0  0  0  0  0  0  0  0  0
  -20.8117   37.9711  -24.3395 N   0  0  0  0  0  0  0  0  0  0  0  0
  -21.4577   38.4343  -25.5599 C   0  0  0  0  0  0  0  0  0  0  0  0
  -22.3228   39.3314  -25.5108 O   0  0  0  0  0  0  0  0  0  0  0  0
  -21.1021   37.8551  -26.8639 C   0  0  0  0  0  0  0  0  0  0  0  0
  -22.2063   36.8479  -27.2139 C   0  0  0  0  0  0  0  0  0  0  0  0
  -22.5625   37.1042  -28.6458 C   0  0  0  0  0  0  0  0  0  0  0  0
  -22.0383   38.4503  -29.0259 C   0  0  0  0  0  0  0  0  0  0  0  0
  -21.2116   38.9605  -27.8922 C   0  0  0  0  0  0  0  0  0  0  0  0
  -19.8670   37.1601  -26.9244 N   0  0  0  0  0  0  0  0  0  0  0  0
  -19.1198   37.0357  -25.7172 C   0  0  0  0  0  0  0  0  0  0  0  0
  -20.0404   36.7768  -24.5427 C   0  0  1  0  0  0  0  0  0  0  0  0
  -19.3720   36.2267  -23.3645 C   0  0  0  0  0  0  0  0  0  0  0  0
  -20.0609   35.8100  -22.2589 C   0  0  0  0  0  0  0  0  0  0  0  0
  -19.3702   35.3106  -21.1486 C   0  0  0  0  0  0  0  0  0  0  0  0
  -20.0244   34.8890  -20.0342 F   0  0  0  0  0  0  0  0  0  0  0  0
  -17.9930   35.2249  -21.1378 C   0  0  0  0  0  0  0  0  0  0  0  0
  -17.3039   35.6435  -22.2499 C   0  0  0  0  0  0  0  0  0  0  0  0
  -15.9512   35.5525  -22.2231 F   0  0  0  0  0  0  0  0  0  0  0  0
  -17.9995   36.1339  -23.3367 C   0  0  0  0  0  0  0  0  0  0  0  0
  -19.8926   40.6350  -21.8559 N   0  0  0  0  0  0  0  0  0  0  0  0
  -18.9169   41.6458  -21.6669 C   0  0  0  0  0  0  0  0  0  0  0  0
  -19.1443   42.9119  -22.1575 C   0  0  0  0  0  0  0  0  0  0  0  0
  -18.2113   43.9312  -21.9923 C   0  0  0  0  0  0  0  0  0  0  0  0
  -17.0438   43.6427  -21.3205 C   0  0  0  0  0  0  0  0  0  0  0  0
  -16.7784   42.3897  -20.8147 C   0  0  0  0  0  0  0  0  0  0  0  0
  -17.7360   41.4047  -21.0025 C   0  0  0  0  0  0  0  0  0  0  0  0
  -15.4301   42.4105  -20.1432 C   0  0  0  0  0  0  0  0  0  0  0  0
  -15.3020   43.8734  -19.7824 C   0  0  1  0  0  0  0  0  0  0  0  0
  -15.8949   44.5373  -21.0105 C   0  0  0  0  0  0  0  0  0  0  0  0
  -16.0815   44.2221  -18.5695 C   0  0  0  0  0  0  0  0  0  0  0  0
  -17.3034   44.0162  -18.4274 O   0  0  0  0  0  0  0  0  0  0  0  0
  -15.1630   44.8140  -17.6547 N   0  0  0  0  0  0  0  0  0  0  0  0
  -13.8745   44.8427  -18.2444 C   0  0  0  0  0  0  0  0  0  0  0  0
  -12.7188   45.3176  -17.7231 N   0  0  0  0  0  0  0  0  0  0  0  0
  -11.5691   45.2699  -18.4200 C   0  0  0  0  0  0  0  0  0  0  0  0
  -11.6158   44.7188  -19.6837 C   0  0  0  0  0  0  0  0  0  0  0  0
  -12.7779   44.2260  -20.2434 C   0  0  0  0  0  0  0  0  0  0  0  0
  -13.9304   44.2913  -19.5042 C   0  0  0  0  0  0  0  0  0  0  0  0
  2  3  2  0
  3  4  1  0
  4  5  1  0
  5  6  1  0
  6  7  2  0
  6  8  1  0
  8  9  1  0
  9 10  1  0
 10 11  1  0
 11 12  1  0
  8 13  1  0
 13 14  1  0
 14 15  1  0
 15 16  1  1
 16 17  2  0
 17 18  1  0
 18 19  1  0
 18 20  2  0
 20 21  1  0
 21 22  1  0
 21 23  2  0
  3 24  1  0
 24 25  1  0
 25 26  2  0
 26 27  1  0
 27 28  2  0
 28 29  1  0
 29 30  2  0
 29 31  1  0
 32 31  1  6
 32 33  1  0
 32 34  1  0
 34 35  2  0
 34 36  1  0
 36 37  1  0
 37 38  2  0
 38 39  1  0
 39 40  2  0
 40 41  1  0
 41 42  2  0
 15  5  1  0
 23 16  1  0
 30 25  1  0
 42 32  1  0
 12  8  1  0
 33 28  1  0
 42 37  1  0
M  END
$$$$
