
     RDKit          3D

 32 35  0  0  0  0  0  0  0  0999 V2000
   -7.7588   -0.9140  -33.4507 C   0  0  0  0  0  0  0  0  0  0  0  0
   -7.3053    0.4548  -33.0413 C   0  0  0  0  0  0  0  0  0  0  0  0
   -5.9375    0.6480  -32.8758 C   0  0  0  0  0  0  0  0  0  0  0  0
   -5.4653    1.8799  -32.4937 C   0  0  0  0  0  0  0  0  0  0  0  0
   -6.3479    2.9097  -32.2806 C   0  0  0  0  0  0  0  0  0  0  0  0
   -7.7020    2.7192  -32.4451 C   0  0  0  0  0  0  0  0  0  0  0  0
   -8.1978    1.4636  -32.8345 C   0  0  0  0  0  0  0  0  0  0  0  0
   -9.6245    1.2603  -33.0167 C   0  0  0  0  0  0  0  0  0  0  0  0
  -10.1194    1.7313  -34.0719 O   0  0  0  0  0  0  0  0  0  0  0  0
  -10.4275    0.5644  -32.0611 N   0  0  0  0  0  0  0  0  0  0  0  0
  -11.8176    0.5132  -32.2985 C   0  0  0  0  0  0  0  0  0  0  0  0
  -12.5321   -0.6424  -32.1640 C   0  0  0  0  0  0  0  0  0  0  0  0
  -13.9058   -0.6312  -32.3897 C   0  0  0  0  0  0  0  0  0  0  0  0
  -14.6071    0.5071  -32.7492 C   0  0  0  0  0  0  0  0  0  0  0  0
  -16.0196    0.4771  -32.8891 C   0  0  0  0  0  0  0  0  0  0  0  0
  -16.5332    0.7042  -31.6437 O   0  0  0  0  0  0  0  0  0  0  0  0
  -17.0554    0.3238  -33.7682 N   0  0  0  0  0  0  0  0  0  0  0  0
  -16.5721   -0.0830  -35.1605 C   0  0  0  0  0  0  0  0  0  0  0  0
  -17.5329   -1.0308  -35.7885 C   0  0  0  0  0  0  0  0  0  0  0  0
  -18.6142   -0.2830  -36.5398 C   0  0  0  0  0  0  0  0  0  0  0  0
  -19.7411    0.1106  -35.7088 C   0  0  0  0  0  0  0  0  0  0  0  0
  -20.9273   -0.7072  -35.8595 N   0  0  0  0  0  0  0  0  0  0  0  0
  -22.0679   -0.3114  -35.1430 C   0  0  0  0  0  0  0  0  0  0  0  0
  -20.7081   -2.0740  -36.1296 C   0  0  0  0  0  0  0  0  0  0  0  0
  -19.5542    0.3039  -34.2623 C   0  0  0  0  0  0  0  0  0  0  0  0
  -20.8242    0.4189  -33.6675 C   0  0  0  0  0  0  0  0  0  0  0  0
  -20.9496    0.6379  -32.3270 C   0  0  0  0  0  0  0  0  0  0  0  0
  -19.8265    0.7491  -31.5419 C   0  0  0  0  0  0  0  0  0  0  0  0
  -18.5659    0.6422  -32.0908 C   0  0  0  0  0  0  0  0  0  0  0  0
  -18.4233    0.4186  -33.4413 C   0  0  0  0  0  0  0  0  0  0  0  0
  -13.8478    1.6737  -32.8789 C   0  0  0  0  0  0  0  0  0  0  0  0
  -12.5014    1.6752  -32.6612 C   0  0  0  0  0  0  0  0  0  0  0  0
  1  2  1  0
  2  3  2  0
  3  4  1  0
  4  5  2  0
  5  6  1  0
  6  7  2  0
  7  8  1  0
  8  9  2  0
  8 10  1  0
 10 11  1  0
 11 12  2  0
 12 13  1  0
 13 14  2  0
 14 15  1  0
 15 16  2  0
 15 17  1  0
 17 18  1  0
 18 19  1  0
 19 20  1  0
 20 21  1  0
 21 22  1  0
 22 23  1  0
 22 24  1  0
 21 25  1  0
 25 26  2  0
 26 27  1  0
 27 28  2  0
 28 29  1  0
 29 30  2  0
 14 31  1  0
 31 32  2  0
  7  2  1  0
 32 11  1  0
 30 17  1  0
 30 25  1  0
M  END
$$$$
