
     RDKit          3D

 20 22  0  0  0  0  0  0  0  0999 V2000
  -20.7616   37.5344  -27.7262 C   0  0  0  0  0  0  0  0  0  0  0  0
  -19.9125   38.2027  -26.6941 C   0  0  0  0  0  0  0  0  0  0  0  0
  -20.7585   38.8437  -25.6079 C   0  0  0  0  0  0  0  0  0  0  0  0
  -19.6742   39.5128  -24.3352 S   0  0  0  0  0  0  0  0  0  0  0  0
  -19.1818   38.1762  -23.2271 C   0  0  0  0  0  0  0  0  0  0  0  0
  -19.6316   36.9505  -23.4182 N   0  0  0  0  0  0  0  0  0  0  0  0
  -19.2635   35.9292  -22.5825 C   0  0  0  0  0  0  0  0  0  0  0  0
  -18.4197   36.2711  -21.5679 C   0  0  0  0  0  0  0  0  0  0  0  0
  -17.9526   37.5492  -21.3707 C   0  0  0  0  0  0  0  0  0  0  0  0
  -17.1772   37.8063  -20.4184 O   0  0  0  0  0  0  0  0  0  0  0  0
  -18.3375   38.5224  -22.2125 N   0  0  0  0  0  0  0  0  0  0  0  0
  -17.8968   39.8503  -22.0674 C   0  0  0  0  0  0  0  0  0  0  0  0
  -18.5441   40.7270  -21.2331 C   0  0  0  0  0  0  0  0  0  0  0  0
  -18.1085   42.0412  -21.0891 C   0  0  0  0  0  0  0  0  0  0  0  0
  -17.0128   42.4686  -21.7931 C   0  0  0  0  0  0  0  0  0  0  0  0
  -16.3632   41.5828  -22.6324 C   0  0  0  0  0  0  0  0  0  0  0  0
  -16.8045   40.2903  -22.7640 C   0  0  0  0  0  0  0  0  0  0  0  0
  -18.1111   34.7328  -20.6655 S   0  0  0  0  0  0  0  0  0  0  0  0
  -18.6673   33.6336  -22.0394 C   0  0  0  0  0  0  0  0  0  0  0  0
  -19.6834   34.5431  -22.6613 C   0  0  0  0  0  0  0  0  0  0  0  0
  1  2  1  0
  2  3  1  0
  3  4  1  0
  4  5  1  0
  5  6  2  0
  6  7  1  0
  7  8  2  0
  8  9  1  0
  9 10  2  0
  9 11  1  0
 11 12  1  0
 12 13  2  0
 13 14  1  0
 14 15  2  0
 15 16  1  0
 16 17  2  0
  8 18  1  0
 18 19  1  0
 19 20  1  0
 11  5  1  0
 17 12  1  0
 20  7  1  0
M  END
$$$$
