
     RDKit          3D

 31 34  0  0  0  0  0  0  0  0999 V2000
  -27.3239   24.4064  -33.2282 C   0  0  0  0  0  0  0  0  0  0  0  0
  -28.1563   23.5348  -32.3985 C   0  0  0  0  0  0  0  0  0  0  0  0
  -27.7099   22.4562  -31.7896 C   0  0  0  0  0  0  0  0  0  0  0  0
  -26.2984   22.0742  -31.9915 C   0  0  0  0  0  0  0  0  0  0  0  0
  -28.6233   21.6973  -30.9494 C   0  0  0  0  0  0  0  0  0  0  0  0
  -29.7993   22.0846  -30.7650 O   0  0  0  0  0  0  0  0  0  0  0  0
  -28.2968   20.5320  -30.3047 O   0  0  0  0  0  0  0  0  0  0  0  0
  -29.0184   20.0508  -29.2431 C   0  0  1  0  0  0  0  0  0  0  0  0
  -29.5209   18.6814  -29.3229 C   0  0  0  0  0  0  0  0  0  0  0  0
  -30.7227   18.2574  -30.0882 C   0  0  0  0  0  0  0  0  0  0  0  0
  -28.7345   17.8879  -28.6117 C   0  0  0  0  0  0  0  0  0  0  0  0
  -27.6508   18.6366  -28.0026 C   0  0  2  0  0  0  0  0  0  0  0  0
  -27.3503   18.3267  -26.5451 C   0  0  0  0  0  0  0  0  0  0  0  0
  -26.4776   18.9362  -26.0428 O   0  0  0  0  0  0  0  0  0  0  0  0
  -28.1537   17.2940  -25.8388 C   0  0  1  0  0  0  0  0  0  0  0  0
  -29.5544   17.7888  -26.0949 C   0  0  0  0  0  0  0  0  0  0  0  0
  -29.9858   18.9942  -26.5058 C   0  0  0  0  0  0  0  0  0  0  0  0
  -31.4746   19.1674  -26.6442 C   0  0  0  0  0  0  0  0  0  0  0  0
  -32.0275   19.0588  -25.3452 O   0  0  0  0  0  0  0  0  0  0  0  0
  -29.1380   20.1698  -26.8253 C   0  0  1  0  0  0  0  0  0  0  0  0
  -28.5298   20.6981  -25.6888 O   0  0  0  0  0  0  0  0  0  0  0  0
  -28.1625   19.9893  -27.9645 C   0  0  2  0  0  0  0  0  0  0  0  0
  -27.2592   21.0156  -28.0092 O   0  0  0  0  0  0  0  0  0  0  0  0
  -27.8485   16.0138  -26.5523 C   0  0  1  0  0  0  0  0  0  0  0  0
  -26.8886   15.9558  -27.6029 C   0  0  1  0  0  0  0  0  0  0  0  0
  -25.9137   16.9607  -27.9642 C   0  0  0  0  0  0  0  0  0  0  0  0
  -26.3949   18.2305  -28.6563 C   0  0  1  0  0  0  0  0  0  0  0  0
  -26.5320   17.9058  -30.1230 C   0  0  0  0  0  0  0  0  0  0  0  0
  -26.6836   15.1718  -26.3259 C   0  0  0  0  0  0  0  0  0  0  0  0
  -25.7206   15.5671  -25.2829 C   0  0  0  0  0  0  0  0  0  0  0  0
  -26.8214   13.6378  -26.4087 C   0  0  0  0  0  0  0  0  0  0  0  0
  1  2  1  0
  2  3  2  0
  3  4  1  0
  3  5  1  0
  5  6  2  0
  5  7  1  0
  8  7  1  6
  8  9  1  0
  9 10  1  0
  9 11  2  0
 12 11  1  6
 12 13  1  0
 13 14  2  0
 13 15  1  0
 15 16  1  6
 16 17  2  0
 17 18  1  0
 18 19  1  0
 17 20  1  0
 20 21  1  1
 20 22  1  0
 22 23  1  6
 15 24  1  0
 24 25  1  0
 25 26  1  1
 26 27  1  0
 27 28  1  6
 25 29  1  0
 29 30  1  0
 29 31  1  0
 22  8  1  0
 24 29  1  1
 22 12  1  0
 27 12  1  0
M  END
$$$$
