
     RDKit          3D

 34 37  0  0  0  0  0  0  0  0999 V2000
  -22.8487   14.9961  -31.2379 C   0  0  0  0  0  0  0  0  0  0  0  0
  -22.4677   15.8424  -32.7780 S   0  0  0  0  0  6  0  0  0  0  0  0
  -23.6153   15.7027  -33.7303 O   0  0  0  0  0  0  0  0  0  0  0  0
  -21.2085   15.2481  -33.3060 O   0  0  0  0  0  0  0  0  0  0  0  0
  -22.2600   17.5415  -32.3467 C   0  0  0  0  0  0  0  0  0  0  0  0
  -23.2879   18.2016  -31.6999 C   0  0  0  0  0  0  0  0  0  0  0  0
  -23.1468   19.5293  -31.3537 C   0  0  0  0  0  0  0  0  0  0  0  0
  -21.9791   20.2190  -31.6469 C   0  0  0  0  0  0  0  0  0  0  0  0
  -20.9343   19.5675  -32.2984 C   0  0  0  0  0  0  0  0  0  0  0  0
  -19.6931   20.3253  -32.6038 C   0  0  0  0  0  0  0  0  0  0  0  0
  -18.5343   19.7630  -31.9802 N   0  0  0  0  0  0  0  0  0  0  0  0
  -17.6770   18.9199  -32.7219 C   0  0  0  0  0  0  0  0  0  0  0  0
  -18.0729   18.5213  -33.9645 N   0  0  0  0  0  0  0  0  0  0  0  0
  -17.2598   17.7029  -34.6888 C   0  0  0  0  0  0  0  0  0  0  0  0
  -17.7042   17.3336  -35.9746 N   0  0  0  0  0  0  0  0  0  0  0  0
  -18.5987   18.0763  -36.7904 C   0  0  0  0  0  0  0  0  0  0  0  0
  -19.5403   18.8972  -36.1548 C   0  0  0  0  0  0  0  0  0  0  0  0
  -20.4370   19.6164  -36.8922 C   0  0  0  0  0  0  0  0  0  0  0  0
  -20.4219   19.5395  -38.2718 C   0  0  0  0  0  0  0  0  0  0  0  0
  -19.5003   18.7351  -38.8932 C   0  0  0  0  0  0  0  0  0  0  0  0
  -18.5619   17.9808  -38.1570 C   0  0  0  0  0  0  0  0  0  0  0  0
  -19.4842   18.6263  -40.3614 C   0  0  0  0  0  0  0  0  0  0  0  0
  -20.0289   19.8196  -41.0759 C   0  0  0  0  0  0  0  0  0  0  0  0
  -21.3179   20.2404  -40.4632 C   0  0  0  0  0  0  0  0  0  0  0  0
  -22.3011   20.5124  -41.1602 O   0  0  0  0  0  0  0  0  0  0  0  0
  -21.3549   20.3118  -39.0470 N   0  0  0  0  0  0  0  0  0  0  0  0
  -16.0967   17.3061  -34.1767 N   0  0  0  0  0  0  0  0  0  0  0  0
  -15.6477   17.6568  -32.9707 C   0  0  0  0  0  0  0  0  0  0  0  0
  -16.4711   18.4975  -32.2129 C   0  0  0  0  0  0  0  0  0  0  0  0
  -16.0658   18.9464  -30.8685 C   0  0  0  0  0  0  0  0  0  0  0  0
  -14.7535   18.5889  -30.5825 F   0  0  0  0  0  0  0  0  0  0  0  0
  -16.8882   18.3738  -29.9255 F   0  0  0  0  0  0  0  0  0  0  0  0
  -16.2126   20.3251  -30.8098 F   0  0  0  0  0  0  0  0  0  0  0  0
  -21.1247   18.2413  -32.6228 C   0  0  0  0  0  0  0  0  0  0  0  0
  1  2  1  0
  2  3  2  0
  2  4  2  0
  2  5  1  0
  5  6  2  0
  6  7  1  0
  7  8  2  0
  8  9  1  0
  9 10  1  0
 10 11  1  0
 11 12  1  0
 12 13  2  0
 13 14  1  0
 14 15  1  0
 15 16  1  0
 16 17  2  0
 17 18  1  0
 18 19  2  0
 19 20  1  0
 20 21  2  0
 20 22  1  0
 22 23  1  0
 23 24  1  0
 24 25  2  0
 24 26  1  0
 14 27  2  0
 27 28  1  0
 28 29  2  0
 29 30  1  0
 30 31  1  0
 30 32  1  0
 30 33  1  0
  9 34  2  0
 34  5  1  0
 29 12  1  0
 21 16  1  0
 26 19  1  0
M  END
$$$$
