
     RDKit          3D

 41 45  0  0  0  0  0  0  0  0999 V2000
  -24.7905   17.9330  -26.2354 O   0  0  0  0  0  0  0  0  0  0  0  0
  -25.0916   16.9776  -27.0253 C   0  0  0  0  0  0  0  0  0  0  0  0
  -26.1303   17.2339  -27.9332 N   0  0  0  0  0  0  0  0  0  0  0  0
  -26.6548   18.5494  -28.2113 C   0  0  0  0  0  0  0  0  0  0  0  0
  -25.8101   19.2151  -29.2294 C   0  0  0  0  0  0  0  0  0  0  0  0
  -25.2421   18.4912  -30.0892 O   0  0  0  0  0  0  0  0  0  0  0  0
  -25.6148   20.6112  -29.2786 N   0  0  0  0  0  0  0  0  0  0  0  0
  -26.1016   21.5871  -28.3414 C   0  0  0  0  0  0  0  0  0  0  0  0
  -26.5407   22.7164  -29.2840 C   0  0  0  0  0  0  0  0  0  0  0  0
  -25.3365   22.7877  -30.1964 C   0  0  2  0  0  0  0  0  0  0  0  0
  -25.6618   23.2134  -31.5203 N   0  0  0  0  0  0  0  0  0  0  0  0
  -24.4966   23.7342  -32.2533 C   0  0  1  0  0  0  0  0  0  0  0  0
  -23.5321   22.6642  -32.5907 C   0  0  0  0  0  0  0  0  0  0  0  0
  -23.1891   22.4587  -34.0119 C   0  0  0  0  0  0  0  0  0  0  0  0
  -23.3021   23.7108  -34.8508 C   0  0  1  0  0  0  0  0  0  0  0  0
  -22.5244   24.7302  -34.3222 O   0  0  0  0  0  0  0  0  0  0  0  0
  -22.9146   23.4418  -36.2410 C   0  0  0  0  0  0  0  0  0  0  0  0
  -22.8188   22.1666  -36.7695 C   0  0  0  0  0  0  0  0  0  0  0  0
  -22.4531   21.9242  -38.0804 C   0  0  0  0  0  0  0  0  0  0  0  0
  -22.1676   22.9844  -38.9128 C   0  0  0  0  0  0  0  0  0  0  0  0
  -21.7800   22.7508  -40.2993 C   0  0  0  0  0  0  0  0  0  0  0  0
  -21.4955   23.7844  -41.1091 N   0  0  0  0  0  0  0  0  0  0  0  0
  -21.1326   23.6041  -42.4010 C   0  0  0  0  0  0  0  0  0  0  0  0
  -21.0441   22.3350  -42.9280 C   0  0  0  0  0  0  0  0  0  0  0  0
  -21.3371   21.2797  -42.0924 C   0  0  0  0  0  0  0  0  0  0  0  0
  -21.6918   21.5210  -40.8185 N   0  0  0  0  0  0  0  0  0  0  0  0
  -22.2669   24.2480  -38.3735 C   0  0  0  0  0  0  0  0  0  0  0  0
  -22.6282   24.4531  -37.0838 N   0  0  0  0  0  0  0  0  0  0  0  0
  -24.7527   24.1510  -34.7302 C   0  0  0  0  0  0  0  0  0  0  0  0
  -24.9455   24.6322  -33.3311 C   0  0  0  0  0  0  0  0  0  0  0  0
  -24.8800   21.3285  -30.2925 C   0  0  0  0  0  0  0  0  0  0  0  0
  -24.3719   15.7129  -26.9521 C   0  0  0  0  0  0  0  0  0  0  0  0
  -24.2302   14.8888  -28.0500 C   0  0  0  0  0  0  0  0  0  0  0  0
  -23.5583   13.6888  -28.0201 C   0  0  0  0  0  0  0  0  0  0  0  0
  -23.0025   13.3088  -26.8106 C   0  0  0  0  0  0  0  0  0  0  0  0
  -23.1091   14.0855  -25.6815 C   0  0  0  0  0  0  0  0  0  0  0  0
  -22.4984   13.6437  -24.3990 C   0  0  0  0  0  0  0  0  0  0  0  0
  -23.0963   14.3795  -23.3901 F   0  0  0  0  0  0  0  0  0  0  0  0
  -22.7103   12.2908  -24.2219 F   0  0  0  0  0  0  0  0  0  0  0  0
  -21.1486   13.9611  -24.3860 F   0  0  0  0  0  0  0  0  0  0  0  0
  -23.8042   15.2949  -25.7745 C   0  0  0  0  0  0  0  0  0  0  0  0
  1  2  2  0
  2  3  1  0
  3  4  1  0
  4  5  1  0
  5  6  2  0
  5  7  1  0
  7  8  1  0
  8  9  1  0
  9 10  1  0
 10 11  1  6
 12 11  1  6
 12 13  1  0
 13 14  1  0
 14 15  1  0
 15 16  1  1
 15 17  1  0
 17 18  2  0
 18 19  1  0
 19 20  2  0
 20 21  1  0
 21 22  2  0
 22 23  1  0
 23 24  2  0
 24 25  1  0
 25 26  2  0
 20 27  1  0
 27 28  2  0
 15 29  1  0
 29 30  1  0
 10 31  1  0
  2 32  1  0
 32 33  2  0
 33 34  1  0
 34 35  2  0
 35 36  1  0
 36 37  1  0
 37 38  1  0
 37 39  1  0
 37 40  1  0
 36 41  2  0
 31  7  1  0
 41 32  1  0
 30 12  1  0
 28 17  1  0
 26 21  1  0
M  END
$$$$
