
     RDKit          3D

 31 35  0  0  0  0  0  0  0  0999 V2000
  -17.3102   40.2444  -23.8258 N   0  0  0  0  0  0  0  0  0  0  0  0
  -17.8483   39.0303  -23.2982 C   0  0  0  0  0  0  0  0  0  0  0  0
  -18.0194   38.8226  -21.9461 C   0  0  0  0  0  0  0  0  0  0  0  0
  -17.7104   39.7300  -20.8512 C   0  0  0  0  0  0  0  0  0  0  0  0
  -17.2248   40.8649  -21.0920 O   0  0  0  0  0  0  0  0  0  0  0  0
  -17.9335   39.3945  -19.4898 N   0  0  0  0  0  0  0  0  0  0  0  0
  -17.6805   40.3844  -18.4558 C   0  0  0  0  0  0  0  0  0  0  0  0
  -16.2475   40.5113  -18.1589 C   0  0  0  0  0  0  0  0  0  0  0  0
  -15.4386   39.5334  -17.6554 C   0  0  0  0  0  0  0  0  0  0  0  0
  -14.1585   40.0632  -17.5234 C   0  0  0  0  0  0  0  0  0  0  0  0
  -14.2842   41.3812  -17.9748 C   0  0  0  0  0  0  0  0  0  0  0  0
  -15.5271   41.5785  -18.3307 O   0  0  0  0  0  0  0  0  0  0  0  0
  -18.5531   37.5595  -21.8132 C   0  0  0  0  0  0  0  0  0  0  0  0
  -18.9394   36.7857  -20.7828 N   0  0  0  0  0  0  0  0  0  0  0  0
  -19.4435   35.5518  -20.9291 C   0  0  0  0  0  0  0  0  0  0  0  0
  -19.8306   34.7796  -19.8736 C   0  0  0  0  0  0  0  0  0  0  0  0
  -20.3481   33.5134  -20.0184 C   0  0  0  0  0  0  0  0  0  0  0  0
  -20.4882   32.9860  -21.2850 C   0  0  0  0  0  0  0  0  0  0  0  0
  -20.0996   33.7594  -22.3556 C   0  0  0  0  0  0  0  0  0  0  0  0
  -19.5843   35.0204  -22.2102 C   0  0  0  0  0  0  0  0  0  0  0  0
  -19.2002   35.7894  -23.2370 N   0  0  0  0  0  0  0  0  0  0  0  0
  -18.6920   37.0311  -23.1052 C   0  0  0  0  0  0  0  0  0  0  0  0
  -18.2561   37.9461  -23.9874 N   0  0  0  0  0  0  0  0  0  0  0  0
  -18.2494   37.7471  -25.4174 C   0  0  0  0  0  0  0  0  0  0  0  0
  -19.6133   38.0809  -25.9637 C   0  0  0  0  0  0  0  0  0  0  0  0
  -19.8229   39.4908  -26.1234 N   0  0  0  0  0  0  0  0  0  0  0  0
  -21.1591   39.8001  -25.6468 C   0  0  0  0  0  0  0  0  0  0  0  0
  -22.0993   39.6079  -26.8423 C   0  0  0  0  0  0  0  0  0  0  0  0
  -21.9418   40.8555  -27.6971 C   0  0  0  0  0  0  0  0  0  0  0  0
  -20.4760   41.1453  -27.8155 C   0  0  0  0  0  0  0  0  0  0  0  0
  -19.6147   39.9602  -27.4618 C   0  0  0  0  0  0  0  0  0  0  0  0
  1  2  1  0
  2  3  2  0
  3  4  1  0
  4  5  2  0
  4  6  1  0
  6  7  1  0
  7  8  1  0
  8  9  2  0
  9 10  1  0
 10 11  2  0
 11 12  1  0
  3 13  1  0
 13 14  2  0
 14 15  1  0
 15 16  2  0
 16 17  1  0
 17 18  2  0
 18 19  1  0
 19 20  2  0
 20 21  1  0
 21 22  2  0
 22 23  1  0
 23 24  1  0
 24 25  1  0
 25 26  1  0
 26 27  1  0
 27 28  1  0
 28 29  1  0
 29 30  1  0
 30 31  1  0
 23  2  1  0
 31 26  1  0
 12  8  1  0
 22 13  1  0
 20 15  1  0
M  END
$$$$
