
     RDKit          3D

 23 24  0  0  0  0  0  0  0  0999 V2000
  -17.7970   43.4316  -25.2097 O   0  0  0  0  0  0  0  0  0  0  0  0
  -18.2731   43.2281  -24.0873 N   0  0  0  0  0  4  0  0  0  0  0  0
  -18.7022   44.2969  -23.3448 O   0  0  0  0  0  1  0  0  0  0  0  0
  -18.3896   41.9120  -23.5402 C   0  0  0  0  0  0  0  0  0  0  0  0
  -18.9109   41.7253  -22.2595 C   0  0  0  0  0  0  0  0  0  0  0  0
  -18.9958   40.4163  -21.7893 C   0  0  0  0  0  0  0  0  0  0  0  0
  -18.5921   39.3451  -22.5325 C   0  0  0  0  0  0  0  0  0  0  0  0
  -18.6948   38.0742  -22.0277 O   0  0  0  0  0  0  0  0  0  0  0  0
  -17.4761   36.8894  -22.1241 P   0  0  0  0  0  5  0  0  0  0  0  0
  -16.1374   37.4453  -21.6592 O   0  0  0  0  0  0  0  0  0  0  0  0
  -17.2713   36.5119  -23.7779 O   0  0  0  0  0  0  0  0  0  0  0  0
  -17.8059   35.5097  -21.2067 O   0  0  0  0  0  0  0  0  0  0  0  0
  -18.7171   34.5258  -21.5808 C   0  0  0  0  0  0  0  0  0  0  0  0
  -20.0673   34.7753  -21.7167 C   0  0  0  0  0  0  0  0  0  0  0  0
  -20.9785   33.7987  -22.0890 C   0  0  0  0  0  0  0  0  0  0  0  0
  -20.5423   32.5141  -22.3402 C   0  0  0  0  0  0  0  0  0  0  0  0
  -21.4254   31.4755  -22.7236 N   0  0  0  0  0  4  0  0  0  0  0  0
  -22.6516   31.6413  -22.7954 O   0  0  0  0  0  0  0  0  0  0  0  0
  -20.9131   30.2441  -23.0265 O   0  0  0  0  0  1  0  0  0  0  0  0
  -19.1945   32.2395  -22.2108 C   0  0  0  0  0  0  0  0  0  0  0  0
  -18.2999   33.2352  -21.8363 C   0  0  0  0  0  0  0  0  0  0  0  0
  -18.0826   39.5346  -23.7857 C   0  0  0  0  0  0  0  0  0  0  0  0
  -17.9870   40.8210  -24.2766 C   0  0  0  0  0  0  0  0  0  0  0  0
  1  2  2  0
  2  3  1  0
  2  4  1  0
  4  5  2  0
  5  6  1  0
  6  7  2  0
  7  8  1  0
  8  9  1  0
  9 10  2  0
  9 11  1  0
  9 12  1  0
 12 13  1  0
 13 14  2  0
 14 15  1  0
 15 16  2  0
 16 17  1  0
 17 18  2  0
 17 19  1  0
 16 20  1  0
 20 21  2  0
  7 22  1  0
 22 23  2  0
 23  4  1  0
 21 13  1  0
M  CHG  4   2   1   3  -1  17   1  19  -1
M  END
$$$$
