
     RDKit          3D

 28 29  0  0  0  0  0  0  0  0999 V2000
  -22.7628   17.5620  -39.9319 C   0  0  0  0  0  0  0  0  0  0  0  0
  -21.5816   18.4770  -40.0283 C   0  0  0  0  0  0  0  0  0  0  0  0
  -21.5887   19.3501  -41.2556 C   0  0  0  0  0  0  0  0  0  0  0  0
  -21.4689   19.3027  -38.7437 C   0  0  0  0  0  0  0  0  0  0  0  0
  -21.4337   18.3128  -37.6089 C   0  0  0  0  0  0  0  0  0  0  0  0
  -20.3683   18.5445  -36.7841 O   0  0  0  0  0  0  0  0  0  0  0  0
  -20.0391   17.8931  -35.6293 C   0  0  0  0  0  0  0  0  0  0  0  0
  -19.6232   16.5997  -35.5198 C   0  0  0  0  0  0  0  0  0  0  0  0
  -19.3302   16.0533  -34.3103 C   0  0  0  0  0  0  0  0  0  0  0  0
  -19.4331   16.7739  -33.1181 C   0  0  0  0  0  0  0  0  0  0  0  0
  -19.1207   16.1282  -31.9377 N   0  0  0  0  0  0  0  0  0  0  0  0
  -17.8574   15.6872  -31.4916 C   0  0  0  0  0  0  0  0  0  0  0  0
  -16.4578   15.9342  -32.2556 S   0  0  0  0  0  0  0  0  0  0  0  0
  -17.8142   14.9278  -30.2520 N   0  0  0  0  0  0  0  0  0  0  0  0
  -16.5705   14.3870  -29.8589 C   0  0  0  0  0  0  0  0  0  0  0  0
  -15.8332   13.5818  -30.7299 C   0  0  0  0  0  0  0  0  0  0  0  0
  -14.6160   13.0313  -30.3692 C   0  0  0  0  0  0  0  0  0  0  0  0
  -14.0715   13.2535  -29.1221 C   0  0  0  0  0  0  0  0  0  0  0  0
  -12.8516   12.7003  -28.7630 O   0  0  0  0  0  0  0  0  0  0  0  0
  -11.6993   12.9330  -29.5496 C   0  0  0  0  0  0  0  0  0  0  0  0
  -10.7238   11.8109  -29.2946 C   0  0  0  0  0  0  0  0  0  0  0  0
   -9.5941   12.2404  -28.3907 C   0  0  0  0  0  0  0  0  0  0  0  0
   -8.9371   11.0944  -27.6672 C   0  0  0  0  0  0  0  0  0  0  0  0
  -10.1957   13.1611  -27.3341 C   0  0  0  0  0  0  0  0  0  0  0  0
  -14.7923   14.0454  -28.2578 C   0  0  0  0  0  0  0  0  0  0  0  0
  -16.0157   14.6013  -28.6178 C   0  0  0  0  0  0  0  0  0  0  0  0
  -19.8458   18.0567  -33.2411 C   0  0  0  0  0  0  0  0  0  0  0  0
  -20.1583   18.6599  -34.4582 C   0  0  0  0  0  0  0  0  0  0  0  0
  1  2  1  0
  2  3  1  0
  2  4  1  0
  4  5  1  0
  5  6  1  0
  6  7  1  0
  7  8  2  0
  8  9  1  0
  9 10  2  0
 10 11  1  0
 11 12  1  0
 12 13  2  0
 12 14  1  0
 14 15  1  0
 15 16  2  0
 16 17  1  0
 17 18  2  0
 18 19  1  0
 19 20  1  0
 20 21  1  0
 21 22  1  0
 22 23  1  0
 22 24  1  0
 18 25  1  0
 25 26  2  0
 10 27  1  0
 27 28  2  0
 28  7  1  0
 26 15  1  0
M  END
$$$$
