
     RDKit          3D

 29 30  0  0  0  0  0  0  0  0999 V2000
  -21.0224   39.4830  -25.7069 C   0  0  0  0  0  0  0  0  0  0  0  0
  -20.0121   38.5786  -25.5260 O   0  0  0  0  0  0  0  0  0  0  0  0
  -19.3595   38.7016  -24.2680 C   0  0  1  0  0  0  0  0  0  0  0  0
  -18.7750   39.9852  -24.1093 N   0  0  0  0  0  0  0  0  0  0  0  0
  -18.0942   40.4601  -22.9552 C   0  0  0  0  0  0  0  0  0  0  0  0
  -17.9871   39.7186  -21.9731 O   0  0  0  0  0  0  0  0  0  0  0  0
  -17.5351   41.8518  -22.9903 C   0  0  0  0  0  0  0  0  0  0  0  0
  -16.8655   42.2264  -21.7647 C   0  0  0  0  0  0  0  0  0  0  0  0
  -17.3035   42.8121  -20.5850 C   0  0  0  0  0  0  0  0  0  0  0  0
  -16.4516   43.0532  -19.6008 C   0  0  0  0  0  0  0  0  0  0  0  0
  -15.1352   42.7301  -19.7323 C   0  0  0  0  0  0  0  0  0  0  0  0
  -15.0739   42.0172  -21.3959 S   0  0  0  0  0  0  0  0  0  0  0  0
  -20.3432   38.3030  -23.2318 C   0  0  0  0  0  0  0  0  0  0  0  0
  -21.4572   38.7270  -22.8296 O   0  0  0  0  0  0  0  0  0  0  0  0
  -19.4630   37.2265  -22.8960 N   0  0  0  0  0  0  0  0  0  0  0  0
  -19.2060   36.1474  -21.9663 C   0  0  0  0  0  0  0  0  0  0  0  0
  -20.4117   35.3908  -21.5880 C   0  0  0  0  0  0  0  0  0  0  0  0
  -20.3541   34.4197  -20.8108 O   0  0  0  0  0  0  0  0  0  0  0  0
  -21.6802   35.7281  -22.0827 O   0  0  0  0  0  1  0  0  0  0  0  0
  -18.0038   35.9080  -21.5038 C   0  0  0  0  0  0  0  0  0  0  0  0
  -17.7211   34.8124  -20.5569 C   0  0  0  0  0  0  0  0  0  0  0  0
  -16.7765   33.8822  -21.1209 O   0  0  0  0  0  0  0  0  0  0  0  0
  -17.0338   33.1993  -22.2820 C   0  0  0  0  0  0  0  0  0  0  0  0
  -16.1479   32.2771  -22.8807 N   0  0  0  0  0  0  0  0  0  0  0  0
  -18.1606   33.4324  -22.8402 O   0  0  0  0  0  0  0  0  0  0  0  0
  -16.7944   36.7263  -21.8445 C   0  0  0  0  0  0  0  0  0  0  0  0
  -16.9115   37.6056  -23.3996 S   0  0  0  0  0  0  0  0  0  0  0  0
  -18.5837   37.4664  -24.0190 C   0  0  2  0  0  0  0  0  0  0  0  0
  -18.1294   38.1885  -22.4675 Na  0  0  0  0  0 15  0  0  0  0  0  0
  1  2  1  0
  2  3  1  0
  3  4  1  1
  4  5  1  0
  5  6  2  0
  5  7  1  0
  7  8  1  0
  8  9  2  0
  9 10  1  0
 10 11  2  0
 11 12  1  0
  3 13  1  0
 13 14  2  0
 13 15  1  0
 15 16  1  0
 16 17  1  0
 17 18  2  0
 17 19  1  0
 16 20  2  0
 20 21  1  0
 21 22  1  0
 22 23  1  0
 23 24  1  0
 23 25  2  0
 20 26  1  0
 26 27  1  0
 28 27  1  1
 28  3  1  0
 12  8  1  0
 28 15  1  0
M  CHG  2  19  -1  29   1
M  END
$$$$
