
     RDKit          3D

 32 36  0  0  0  0  0  0  0  0999 V2000
  -20.2332   31.7247  -23.1910 O   0  0  0  0  0  0  0  0  0  0  0  0
  -21.2220   32.5625  -22.6759 C   0  0  1  0  0  0  0  0  0  0  0  0
  -21.1705   32.4098  -21.1652 C   0  0  0  0  0  0  0  0  0  0  0  0
  -20.0623   33.2579  -20.5789 C   0  0  0  0  0  0  0  0  0  0  0  0
  -18.9752   33.5254  -21.5926 C   0  0  2  0  0  0  0  0  0  0  0  0
  -17.9708   34.3435  -20.9411 N   0  0  0  0  0  0  0  0  0  0  0  0
  -17.8051   35.7255  -21.1754 C   0  0  0  0  0  0  0  0  0  0  0  0
  -16.8142   36.3638  -20.4962 N   0  0  0  0  0  0  0  0  0  0  0  0
  -16.5687   37.6742  -20.6435 C   0  0  0  0  0  0  0  0  0  0  0  0
  -17.3795   38.3592  -21.5300 C   0  0  0  0  0  0  0  0  0  0  0  0
  -17.3647   39.6422  -21.8638 N   0  0  0  0  0  0  0  0  0  0  0  0
  -18.3735   39.8399  -22.7846 C   0  0  0  0  0  0  0  0  0  0  0  0
  -18.5826   41.1212  -23.3148 N   0  0  0  0  0  0  0  0  0  0  0  0
  -17.8207   42.2778  -23.0281 C   0  0  0  0  0  0  0  0  0  0  0  0
  -17.2458   42.9364  -24.0925 C   0  0  0  0  0  0  0  0  0  0  0  0
  -17.3979   42.4852  -25.3536 F   0  0  0  0  0  0  0  0  0  0  0  0
  -16.5051   44.0741  -23.8494 C   0  0  0  0  0  0  0  0  0  0  0  0
  -16.3370   44.5529  -22.5668 C   0  0  0  0  0  0  0  0  0  0  0  0
  -15.6065   45.6716  -22.3438 F   0  0  0  0  0  0  0  0  0  0  0  0
  -16.9038   43.9046  -21.5162 C   0  0  0  0  0  0  0  0  0  0  0  0
  -17.6571   42.7478  -21.7624 C   0  0  0  0  0  0  0  0  0  0  0  0
  -18.2149   42.1471  -20.6693 F   0  0  0  0  0  0  0  0  0  0  0  0
  -18.9945   38.6991  -23.0111 N   0  0  0  0  0  0  0  0  0  0  0  0
  -20.0804   38.3643  -23.8588 C   0  0  1  0  0  0  0  0  0  0  0  0
  -20.2282   39.2650  -25.0759 C   0  0  0  0  0  0  0  0  0  0  0  0
  -21.0014   38.3729  -25.9922 C   0  0  0  0  0  0  0  0  0  0  0  0
  -20.8077   37.0729  -25.6458 O   0  0  0  0  0  0  0  0  0  0  0  0
  -20.1475   36.9877  -24.4135 C   0  0  0  0  0  0  0  0  0  0  0  0
  -18.3858   37.7354  -22.2267 C   0  0  0  0  0  0  0  0  0  0  0  0
  -18.5842   36.4217  -22.0379 N   0  0  0  0  0  0  0  0  0  0  0  0
  -19.4179   34.1964  -22.8384 C   0  0  0  0  0  0  0  0  0  0  0  0
  -20.8816   33.9734  -23.0889 C   0  0  0  0  0  0  0  0  0  0  0  0
  2  1  1  6
  2  3  1  0
  3  4  1  0
  4  5  1  0
  5  6  1  1
  6  7  1  0
  7  8  2  0
  8  9  1  0
  9 10  2  0
 10 11  1  0
 11 12  2  0
 12 13  1  0
 13 14  1  0
 14 15  2  0
 15 16  1  0
 15 17  1  0
 17 18  2  0
 18 19  1  0
 18 20  1  0
 20 21  2  0
 21 22  1  0
 12 23  1  0
 24 23  1  6
 24 25  1  0
 25 26  1  0
 26 27  1  0
 27 28  1  0
 23 29  1  0
 29 30  2  0
  5 31  1  0
 31 32  1  0
 32  2  1  0
 30  7  1  0
 29 10  1  0
 21 14  1  0
 28 24  1  0
M  END
$$$$
