
     RDKit          3D

 28 30  0  0  0  0  0  0  0  0999 V2000
  -12.0694   -1.7641  -34.0398 C   0  0  0  0  0  0  0  0  0  0  0  0
  -11.5612   -0.5781  -33.3028 C   0  0  0  0  0  0  0  0  0  0  0  0
  -10.4391    0.0768  -33.8461 C   0  0  0  0  0  0  0  0  0  0  0  0
   -9.9631    1.2279  -33.2406 C   0  0  0  0  0  0  0  0  0  0  0  0
   -8.8442    2.0009  -33.6967 C   0  0  0  0  0  0  0  0  0  0  0  0
   -8.5784    2.4363  -34.9136 C   0  0  0  0  0  0  0  0  0  0  0  0
   -7.4051    3.2615  -35.0932 C   0  0  0  0  0  0  0  0  0  0  0  0
   -6.4080    3.9506  -35.2642 N   0  0  0  0  0  0  0  0  0  0  0  0
  -10.6431    1.6778  -32.0984 C   0  0  0  0  0  0  0  0  0  0  0  0
  -11.7285    1.0316  -31.5812 C   0  0  0  0  0  0  0  0  0  0  0  0
  -12.3770    1.5821  -30.3641 C   0  0  0  0  0  0  0  0  0  0  0  0
  -12.2175   -0.1353  -32.1950 C   0  0  0  0  0  0  0  0  0  0  0  0
  -13.3422   -0.7254  -31.6609 N   0  0  0  0  0  0  0  0  0  0  0  0
  -14.7032   -0.4222  -31.9763 C   0  0  0  0  0  0  0  0  0  0  0  0
  -15.0355    0.6930  -32.7485 C   0  0  0  0  0  0  0  0  0  0  0  0
  -16.3563    0.9209  -33.0004 C   0  0  0  0  0  0  0  0  0  0  0  0
  -17.3210    0.1148  -32.5298 N   0  0  0  0  0  0  0  0  0  0  0  0
  -17.0233   -0.9689  -31.7837 C   0  0  0  0  0  0  0  0  0  0  0  0
  -18.0032   -1.8015  -31.2240 N   0  0  0  0  0  0  0  0  0  0  0  0
  -17.8697   -2.9039  -30.3799 C   0  0  0  0  0  0  0  0  0  0  0  0
  -19.0140   -3.4596  -29.8000 C   0  0  0  0  0  0  0  0  0  0  0  0
  -18.9883   -4.5881  -29.0108 C   0  0  0  0  0  0  0  0  0  0  0  0
  -17.7861   -5.2305  -28.7596 C   0  0  0  0  0  0  0  0  0  0  0  0
  -17.7469   -6.4054  -27.9602 C   0  0  0  0  0  0  0  0  0  0  0  0
  -17.7121   -7.3905  -27.2679 N   0  0  0  0  0  0  0  0  0  0  0  0
  -16.6699   -4.6827  -29.3261 C   0  0  0  0  0  0  0  0  0  0  0  0
  -16.6907   -3.5602  -30.1086 C   0  0  0  0  0  0  0  0  0  0  0  0
  -15.7060   -1.1653  -31.5548 N   0  0  0  0  0  0  0  0  0  0  0  0
  1  2  1  0
  2  3  2  0
  3  4  1  0
  4  5  1  0
  5  6  2  0
  6  7  1  0
  7  8  3  0
  4  9  2  0
  9 10  1  0
 10 11  1  0
 10 12  2  0
 12 13  1  0
 13 14  1  0
 14 15  2  0
 15 16  1  0
 16 17  2  0
 17 18  1  0
 18 19  1  0
 19 20  1  0
 20 21  2  0
 21 22  1  0
 22 23  2  0
 23 24  1  0
 24 25  3  0
 23 26  1  0
 26 27  2  0
 18 28  2  0
 12  2  1  0
 28 14  1  0
 27 20  1  0
M  END
$$$$
