
     RDKit          3D

 12 12  0  0  0  0  0  0  0  0999 V2000
  -21.7674   23.1788  -43.9126 O   0  0  0  0  0  0  0  0  0  0  0  0
  -21.2936   22.2168  -43.2605 C   0  0  0  0  0  0  0  0  0  0  0  0
  -20.4776   21.3216  -43.9330 O   0  0  0  0  0  0  0  0  0  0  0  0
  -21.6107   22.0755  -41.8454 C   0  0  0  0  0  0  0  0  0  0  0  0
  -22.7436   22.6429  -41.3044 C   0  0  0  0  0  0  0  0  0  0  0  0
  -23.0801   22.5348  -39.9790 C   0  0  0  0  0  0  0  0  0  0  0  0
  -24.8205   23.4255  -39.2279 I   0  0  0  0  0  0  0  0  0  0  0  0
  -22.2653   21.8277  -39.1093 C   0  0  0  0  0  0  0  0  0  0  0  0
  -22.7221   21.6241  -37.0711 I   0  0  0  0  0  0  0  0  0  0  0  0
  -21.1314   21.2593  -39.6488 C   0  0  0  0  0  0  0  0  0  0  0  0
  -19.8853   20.1770  -38.3150 I   0  0  0  0  0  0  0  0  0  0  0  0
  -20.7915   21.3691  -40.9901 C   0  0  0  0  0  0  0  0  0  0  0  0
  1  2  2  0
  2  3  1  0
  2  4  1  0
  4  5  2  0
  5  6  1  0
  6  7  1  0
  6  8  2  0
  8  9  1  0
  8 10  1  0
 10 11  1  0
 10 12  2  0
 12  4  1  0
M  END
$$$$
