
     RDKit          3D

 37 41  0  0  0  0  0  0  0  0999 V2000
  -14.3010   -0.4377  -31.6265 C   0  0  0  0  0  0  0  0  0  0  0  0
  -14.8980   -1.6125  -32.3006 C   0  0  2  0  0  0  0  0  0  0  0  0
  -14.0913   -2.8540  -32.1337 C   0  0  0  0  0  0  0  0  0  0  0  0
  -12.7170   -2.6273  -32.7139 C   0  0  0  0  0  0  0  0  0  0  0  0
  -12.8246   -2.3003  -34.1522 C   0  0  1  0  0  0  0  0  0  0  0  0
  -13.7377   -1.1403  -34.4736 C   0  0  1  0  0  0  0  0  0  0  0  0
  -13.9138   -0.9559  -35.9381 C   0  0  0  0  0  0  0  0  0  0  0  0
  -12.8038   -1.3264  -36.8270 C   0  0  0  0  0  0  0  0  0  0  0  0
  -11.7016   -2.1614  -36.2499 C   0  0  1  0  0  0  0  0  0  0  0  0
  -10.4700   -2.0556  -36.9814 N   0  0  0  0  0  0  0  0  0  0  0  0
   -9.4007   -2.8476  -36.4880 C   0  0  0  0  0  0  0  0  0  0  0  0
   -8.4742   -3.2432  -37.2369 O   0  0  0  0  0  0  0  0  0  0  0  0
   -9.4206   -3.1909  -35.0425 C   0  0  0  0  0  0  0  0  0  0  0  0
  -10.3914   -2.7654  -34.2826 C   0  0  0  0  0  0  0  0  0  0  0  0
  -11.4854   -1.9472  -34.7881 C   0  0  2  0  0  0  0  0  0  0  0  0
  -11.1285   -0.4998  -34.4710 C   0  0  0  0  0  0  0  0  0  0  0  0
  -15.0416   -1.3809  -33.8202 C   0  0  2  0  0  0  0  0  0  0  0  0
  -15.9765   -0.2004  -33.8096 C   0  0  0  0  0  0  0  0  0  0  0  0
  -16.8945   -0.5013  -32.6391 C   0  0  0  0  0  0  0  0  0  0  0  0
  -16.3419   -1.7551  -31.9956 C   0  0  2  0  0  0  0  0  0  0  0  0
  -16.7488   -1.9707  -30.6204 C   0  0  0  0  0  0  0  0  0  0  0  0
  -15.8064   -1.9990  -29.7632 O   0  0  0  0  0  0  0  0  0  0  0  0
  -18.0566   -2.1525  -30.1332 N   0  0  0  0  0  0  0  0  0  0  0  0
  -19.2239   -1.4303  -30.4554 C   0  0  0  0  0  0  0  0  0  0  0  0
  -19.3510   -0.0730  -30.5819 C   0  0  0  0  0  0  0  0  0  0  0  0
  -20.5195    0.5945  -30.9016 C   0  0  0  0  0  0  0  0  0  0  0  0
  -20.5720    2.0751  -31.0196 C   0  0  0  0  0  0  0  0  0  0  0  0
  -19.8858    2.6439  -29.9828 F   0  0  0  0  0  0  0  0  0  0  0  0
  -21.8673    2.5348  -31.1331 F   0  0  0  0  0  0  0  0  0  0  0  0
  -19.9200    2.4193  -32.1882 F   0  0  0  0  0  0  0  0  0  0  0  0
  -21.6502   -0.1621  -31.1108 C   0  0  0  0  0  0  0  0  0  0  0  0
  -21.5899   -1.5357  -30.9987 C   0  0  0  0  0  0  0  0  0  0  0  0
  -20.3935   -2.1533  -30.6759 C   0  0  0  0  0  0  0  0  0  0  0  0
  -20.4198   -3.6309  -30.5733 C   0  0  0  0  0  0  0  0  0  0  0  0
  -19.6872   -4.2206  -31.5962 F   0  0  0  0  0  0  0  0  0  0  0  0
  -21.7397   -4.0896  -30.6246 F   0  0  0  0  0  0  0  0  0  0  0  0
  -19.8764   -4.0504  -29.3704 F   0  0  0  0  0  0  0  0  0  0  0  0
  2  1  1  1
  2  3  1  0
  3  4  1  0
  5  4  1  1
  5  6  1  0
  6  7  1  6
  7  8  1  0
  9  8  1  6
  9 10  1  0
 10 11  1  0
 11 12  2  0
 11 13  1  0
 13 14  2  0
 14 15  1  0
 15 16  1  6
  6 17  1  0
 17 18  1  1
 18 19  1  0
 19 20  1  0
 20 21  1  1
 21 22  2  0
 21 23  1  0
 23 24  1  0
 24 25  2  0
 25 26  1  0
 26 27  1  0
 27 28  1  0
 27 29  1  0
 27 30  1  0
 26 31  2  0
 31 32  1  0
 32 33  2  0
 33 34  1  0
 34 35  1  0
 34 36  1  0
 34 37  1  0
 17  2  1  0
 33 24  1  0
 20  2  1  0
 15  5  1  0
 15  9  1  0
M  END
$$$$
