
     RDKit          3D

 27 31  0  0  0  0  0  0  0  0999 V2000
  -26.7684   24.4517  -33.5621 C   0  0  0  0  0  0  0  0  0  0  0  0
  -27.8616   24.5717  -32.6738 O   0  0  0  0  0  0  0  0  0  0  0  0
  -28.0412   23.5835  -31.7205 C   0  0  0  0  0  0  0  0  0  0  0  0
  -29.2780   23.1042  -31.3481 C   0  0  0  0  0  0  0  0  0  0  0  0
  -29.4602   22.1200  -30.3987 C   0  0  0  0  0  0  0  0  0  0  0  0
  -28.3421   21.5657  -29.7683 C   0  0  0  0  0  0  0  0  0  0  0  0
  -28.4972   20.5272  -28.7626 C   0  0  0  0  0  0  0  0  0  0  0  0
  -29.1037   19.3163  -29.0247 C   0  0  0  0  0  0  0  0  0  0  0  0
  -29.2050   18.4141  -28.0383 N   0  0  0  0  0  0  0  0  0  0  0  0
  -28.7317   18.6447  -26.7826 C   0  0  0  0  0  0  0  0  0  0  0  0
  -28.7082   17.9097  -25.6218 C   0  0  0  0  0  0  0  0  0  0  0  0
  -29.2412   16.5615  -25.4316 C   0  0  0  0  0  0  0  0  0  0  0  0
  -28.4289   15.4866  -25.1210 C   0  0  0  0  0  0  0  0  0  0  0  0
  -28.9276   14.2123  -24.9408 C   0  0  0  0  0  0  0  0  0  0  0  0
  -30.2836   14.0070  -25.0759 C   0  0  0  0  0  0  0  0  0  0  0  0
  -31.0919   15.0920  -25.3880 C   0  0  0  0  0  0  0  0  0  0  0  0
  -32.4228   14.9117  -25.5252 N   0  0  0  0  0  0  0  0  0  0  0  0
  -33.2189   15.9493  -25.8271 C   0  0  0  0  0  0  0  0  0  0  0  0
  -32.7503   17.2293  -26.0123 C   0  0  0  0  0  0  0  0  0  0  0  0
  -31.3964   17.4438  -25.8786 C   0  0  0  0  0  0  0  0  0  0  0  0
  -30.6009   16.3592  -25.5678 C   0  0  0  0  0  0  0  0  0  0  0  0
  -28.0902   18.6760  -24.6672 C   0  0  0  0  0  0  0  0  0  0  0  0
  -27.7507   19.8364  -25.2304 N   0  0  0  0  0  0  0  0  0  0  0  0
  -28.1356   19.8104  -26.4889 N   0  0  0  0  0  0  0  0  0  0  0  0
  -28.0272   20.7382  -27.4892 C   0  0  0  0  0  0  0  0  0  0  0  0
  -27.1176   22.0338  -30.1305 C   0  0  0  0  0  0  0  0  0  0  0  0
  -26.9458   23.0116  -31.0745 C   0  0  0  0  0  0  0  0  0  0  0  0
  1  2  1  0
  2  3  1  0
  3  4  2  0
  4  5  1  0
  5  6  2  0
  6  7  1  0
  7  8  1  0
  8  9  2  0
  9 10  1  0
 10 11  2  0
 11 12  1  0
 12 13  2  0
 13 14  1  0
 14 15  2  0
 15 16  1  0
 16 17  2  0
 17 18  1  0
 18 19  2  0
 19 20  1  0
 20 21  2  0
 11 22  1  0
 22 23  2  0
 23 24  1  0
 24 25  1  0
  6 26  1  0
 26 27  2  0
 27  3  1  0
 25  7  2  0
 24 10  1  0
 21 12  1  0
 21 16  1  0
M  END
$$$$
