
     RDKit          3D

 19 20  0  0  0  0  0  0  0  0999 V2000
  -27.9628   21.3963  -31.4389 O   0  0  0  0  0  0  0  0  0  0  0  0
  -28.8458   22.2774  -31.2764 C   0  0  0  0  0  0  0  0  0  0  0  0
  -28.9708   23.3642  -32.1302 O   0  0  0  0  0  0  0  0  0  0  0  0
  -29.7546   22.0981  -30.1192 C   0  0  0  0  0  0  0  0  0  0  0  0
  -29.5097   20.8472  -29.4310 N   0  0  0  0  0  0  0  0  0  0  0  0
  -28.6129   20.7624  -28.3601 C   0  0  0  0  0  0  0  0  0  0  0  0
  -27.9859   21.8473  -28.0987 O   0  0  0  0  0  0  0  0  0  0  0  0
  -28.3230   19.6209  -27.5393 C   0  0  0  0  0  0  0  0  0  0  0  0
  -27.6402   19.7899  -26.3642 N   0  0  0  0  0  0  0  0  0  0  0  0
  -27.3211   18.8181  -25.5363 C   0  0  0  0  0  0  0  0  0  0  0  0
  -26.4411   19.1879  -24.0621 Cl  0  0  0  0  0  0  0  0  0  0  0  0
  -27.6568   17.5276  -25.7938 C   0  0  0  0  0  0  0  0  0  0  0  0
  -27.3250   16.4982  -24.9278 C   0  0  0  0  0  0  0  0  0  0  0  0
  -27.6736   15.1926  -25.2043 C   0  0  0  0  0  0  0  0  0  0  0  0
  -28.3640   14.9616  -26.3765 C   0  0  0  0  0  0  0  0  0  0  0  0
  -28.7018   15.9656  -27.2466 C   0  0  0  0  0  0  0  0  0  0  0  0
  -28.3443   17.2715  -26.9542 C   0  0  0  0  0  0  0  0  0  0  0  0
  -28.6629   18.3172  -27.8008 C   0  0  0  0  0  0  0  0  0  0  0  0
  -29.3488   17.9905  -28.9397 O   0  0  0  0  0  0  0  0  0  0  0  0
  1  2  2  0
  2  3  1  0
  2  4  1  0
  4  5  1  0
  5  6  1  0
  6  7  2  0
  6  8  1  0
  8  9  2  0
  9 10  1  0
 10 11  1  0
 10 12  2  0
 12 13  1  0
 13 14  2  0
 14 15  1  0
 15 16  2  0
 16 17  1  0
 17 18  2  0
 18 19  1  0
 18  8  1  0
 17 12  1  0
M  END
$$$$
