
     RDKit          3D

 27 30  0  0  0  0  0  0  0  0999 V2000
  -20.2494   48.1120  -21.7738 C   0  0  0  0  0  0  0  0  0  0  0  0
  -19.7521   46.7412  -21.4866 C   0  0  0  0  0  0  0  0  0  0  0  0
  -20.0831   45.6521  -22.2998 C   0  0  0  0  0  0  0  0  0  0  0  0
  -19.5859   44.3975  -21.9767 C   0  0  0  0  0  0  0  0  0  0  0  0
  -18.7749   44.1679  -20.8849 C   0  0  0  0  0  0  0  0  0  0  0  0
  -18.2657   42.8812  -20.5545 N   0  0  0  0  0  0  0  0  0  0  0  0
  -17.8540   42.5244  -19.3269 N   0  0  0  0  0  0  0  0  0  0  0  0
  -17.4424   41.2496  -19.3898 C   0  0  0  0  0  0  0  0  0  0  0  0
  -17.5955   40.7914  -20.6766 C   0  0  0  0  0  0  0  0  0  0  0  0
  -17.3390   39.5738  -21.3109 C   0  0  0  0  0  0  0  0  0  0  0  0
  -16.8608   38.6240  -20.6371 O   0  0  0  0  0  0  0  0  0  0  0  0
  -17.5938   39.4024  -22.6217 N   0  0  0  0  0  0  0  0  0  0  0  0
  -17.3250   38.1369  -23.2713 C   0  0  0  0  0  0  0  0  0  0  0  0
  -18.4560   37.1757  -23.0551 C   0  0  0  0  0  0  0  0  0  0  0  0
  -19.5015   37.5898  -22.5149 O   0  0  0  0  0  0  0  0  0  0  0  0
  -18.3646   35.8302  -23.4443 N   0  0  0  0  0  0  0  0  0  0  0  0
  -19.3893   34.8358  -23.3469 C   0  0  0  0  0  0  0  0  0  0  0  0
  -19.5826   34.4574  -21.9178 C   0  0  0  0  0  0  0  0  0  0  0  0
  -18.6767   33.8632  -21.0674 C   0  0  0  0  0  0  0  0  0  0  0  0
  -19.2884   33.6988  -19.8337 C   0  0  0  0  0  0  0  0  0  0  0  0
  -20.5541   34.2079  -19.9963 C   0  0  0  0  0  0  0  0  0  0  0  0
  -20.6887   34.6396  -21.2204 O   0  0  0  0  0  0  0  0  0  0  0  0
  -18.1037   40.4405  -23.3044 C   0  0  0  0  0  0  0  0  0  0  0  0
  -18.3606   41.6360  -22.7032 N   0  0  0  0  0  0  0  0  0  0  0  0
  -18.1200   41.8459  -21.3977 C   0  0  0  0  0  0  0  0  0  0  0  0
  -18.4705   45.2867  -20.1007 C   0  0  0  0  0  0  0  0  0  0  0  0
  -18.9430   46.5334  -20.3909 C   0  0  0  0  0  0  0  0  0  0  0  0
  1  2  1  0
  2  3  2  0
  3  4  1  0
  4  5  2  0
  5  6  1  0
  6  7  1  0
  7  8  2  0
  8  9  1  0
  9 10  1  0
 10 11  2  0
 10 12  1  0
 12 13  1  0
 13 14  1  0
 14 15  2  0
 14 16  1  0
 16 17  1  0
 17 18  1  0
 18 19  2  0
 19 20  1  0
 20 21  2  0
 21 22  1  0
 12 23  1  0
 23 24  2  0
 24 25  1  0
  5 26  1  0
 26 27  2  0
 27  2  1  0
 25  6  1  0
 25  9  2  0
 22 18  1  0
M  END
$$$$
