
     RDKit          3D

 12 10  0  0  0  0  0  0  0  0999 V2000
  -20.2950   36.2365  -23.2367 C   0  0  0  0  0  0  0  0  0  0  0  0
  -19.0104   36.4642  -22.4816 C   0  0  0  0  0  0  0  0  0  0  0  0
  -18.6897   37.6394  -21.9798 N   0  0  0  0  0  0  0  0  0  0  0  0
  -17.7732   37.9693  -21.3980 C   0  0  0  0  0  0  0  0  0  0  0  0
  -17.1728   39.1087  -20.7576 N   0  0  0  0  0  0  0  0  0  0  0  0
  -16.7914   36.3632  -21.3263 S   0  0  0  0  0  0  0  0  0  0  0  0
  -18.1035   35.4738  -22.2768 C   0  0  0  0  0  0  0  0  0  0  0  0
  -18.0332   34.0693  -22.6316 C   0  0  0  0  0  0  0  0  0  0  0  0
  -18.8722   33.1419  -21.8196 C   0  0  0  0  0  0  0  0  0  0  0  0
  -18.6492   31.7849  -22.3408 N   0  0  0  0  0  0  0  0  0  0  0  0
  -18.3395   36.0846  -22.1828 Cl  0  0  0  0  0  0  0  0  0  0  0  0
  -18.3390   36.0876  -22.1821 Cl  0  0  0  0  0  0  0  0  0  0  0  0
  1  2  1  0
  2  3  1  0
  3  4  2  0
  4  5  1  0
  4  6  1  0
  6  7  1  0
  7  8  1  0
  8  9  1  0
  9 10  1  0
  7  2  2  0
M  END
$$$$
