
     RDKit          3D

 18 18  0  0  0  0  0  0  0  0999 V2000
  -29.6993   17.6841  -26.8618 Br  0  0  0  0  0  0  0  0  0  0  0  0
  -30.8014   19.3169  -28.7284 C   0  0  0  0  0  0  0  0  0  0  0  0
  -29.3397   18.8557  -28.6122 C   0  0  0  0  0  0  0  0  0  0  0  0
  -29.0766   17.7472  -29.6274 C   0  0  0  0  0  0  0  0  0  0  0  0
  -28.5460   19.9668  -29.0042 N   0  0  0  0  0  0  0  0  0  0  0  0
  -27.6629   20.5433  -28.3092 C   0  0  0  0  0  0  0  0  0  0  0  0
  -26.9141   21.6621  -28.8000 N   0  0  0  0  0  0  0  0  0  0  0  0
  -27.3879   20.0830  -26.9951 N   0  0  0  0  0  0  0  0  0  0  0  0
  -28.0461   19.0669  -26.5073 C   0  0  0  0  0  0  0  0  0  0  0  0
  -27.7518   18.6191  -25.1779 N   0  0  0  0  0  0  0  0  0  0  0  0
  -29.0381   18.4203  -27.2898 N   0  0  0  0  0  0  0  0  0  0  0  0
  -29.6994   17.3213  -26.6647 C   0  0  0  0  0  0  0  0  0  0  0  0
  -29.2014   16.0544  -26.7914 C   0  0  0  0  0  0  0  0  0  0  0  0
  -29.8671   14.9899  -26.1691 C   0  0  0  0  0  0  0  0  0  0  0  0
  -31.0182   15.2083  -25.4312 C   0  0  0  0  0  0  0  0  0  0  0  0
  -31.9221   13.7391  -24.5823 Br  0  0  0  0  0  0  0  0  0  0  0  0
  -31.5000   16.4939  -25.3185 C   0  0  0  0  0  0  0  0  0  0  0  0
  -30.8349   17.5601  -25.9407 C   0  0  0  0  0  0  0  0  0  0  0  0
  2  3  1  0
  3  4  1  0
  3  5  1  0
  5  6  2  0
  6  7  1  0
  6  8  1  0
  8  9  2  0
  9 10  1  0
  9 11  1  0
 11 12  1  0
 12 13  2  0
 13 14  1  0
 14 15  2  0
 15 16  1  0
 15 17  1  0
 17 18  2  0
 11  3  1  0
 18 12  1  0
M  END
$$$$
