
     RDKit          3D

 32 36  0  0  0  0  0  0  0  0999 V2000
  -23.8890   19.7127  -27.6611 N   0  0  0  0  0  0  0  0  0  0  0  0
  -24.1826   19.1895  -26.6400 C   0  0  0  0  0  0  0  0  0  0  0  0
  -24.5602   18.5641  -25.3771 C   0  0  0  0  0  0  0  0  0  0  0  0
  -23.6486   18.5625  -24.3129 C   0  0  0  0  0  0  0  0  0  0  0  0
  -24.1928   17.9017  -23.2025 C   0  0  0  0  0  0  0  0  0  0  0  0
  -25.3513   17.3686  -23.1190 N   0  0  0  0  0  0  0  0  0  0  0  0
  -26.2694   17.3585  -24.1278 C   0  0  0  0  0  0  0  0  0  0  0  0
  -27.6046   16.9365  -24.0525 N   0  0  0  0  0  0  0  0  0  0  0  0
  -28.3450   16.8946  -25.3037 C   0  0  0  0  0  0  0  0  0  0  0  0
  -28.6600   15.7010  -25.9343 C   0  0  0  0  0  0  0  0  0  0  0  0
  -29.3597   15.7221  -27.1931 C   0  0  0  0  0  0  0  0  0  0  0  0
  -29.7993   14.5092  -27.8629 C   0  0  0  0  0  0  0  0  0  0  0  0
  -30.7339   13.7062  -26.9216 C   0  0  0  0  0  0  0  0  0  0  0  0
  -31.4094   12.6965  -27.7826 C   0  0  0  0  0  0  0  0  0  0  0  0
  -30.6355   11.9899  -28.7377 N   0  0  0  0  0  0  0  0  0  0  0  0
  -30.8027   10.5973  -28.5083 C   0  0  0  0  0  0  0  0  0  0  0  0
  -31.2266    9.7047  -29.6228 C   0  0  0  0  0  0  0  0  0  0  0  0
  -32.5399   10.1849  -29.5286 O   0  0  0  0  0  0  0  0  0  0  0  0
  -32.2877   10.3627  -28.1499 C   0  0  0  0  0  0  0  0  0  0  0  0
  -29.3459   12.3838  -29.0941 C   0  0  0  0  0  0  0  0  0  0  0  0
  -28.7476   13.5401  -28.3127 C   0  0  0  0  0  0  0  0  0  0  0  0
  -29.6339   16.9890  -27.6190 C   0  0  0  0  0  0  0  0  0  0  0  0
  -29.3579   18.1458  -27.0677 C   0  0  0  0  0  0  0  0  0  0  0  0
  -29.6724   19.4385  -27.5374 N   0  0  0  0  0  0  0  0  0  0  0  0
  -29.4073   20.6601  -26.8075 C   0  0  0  0  0  0  0  0  0  0  0  0
  -29.0121   21.6440  -27.8680 C   0  0  0  0  0  0  0  0  0  0  0  0
  -29.8072   21.2304  -29.0587 C   0  0  0  0  0  0  0  0  0  0  0  0
  -30.8528   22.1257  -29.2045 F   0  0  0  0  0  0  0  0  0  0  0  0
  -29.0459   21.2620  -30.2203 F   0  0  0  0  0  0  0  0  0  0  0  0
  -30.2789   19.8320  -28.7817 C   0  0  0  0  0  0  0  0  0  0  0  0
  -28.6826   18.0472  -25.8581 N   0  0  0  0  0  0  0  0  0  0  0  0
  -25.7711   18.0027  -25.2732 C   0  0  0  0  0  0  0  0  0  0  0  0
  1  2  3  0
  2  3  1  0
  3  4  2  0
  4  5  1  0
  5  6  2  0
  6  7  1  0
  7  8  1  0
  8  9  1  0
  9 10  2  0
 10 11  1  0
 11 12  1  0
 12 13  1  0
 13 14  1  0
 14 15  1  0
 15 16  1  0
 16 17  1  0
 17 18  1  0
 18 19  1  0
 15 20  1  0
 20 21  1  0
 11 22  2  0
 22 23  1  0
 23 24  1  0
 24 25  1  0
 25 26  1  0
 26 27  1  0
 27 28  1  0
 27 29  1  0
 27 30  1  0
 23 31  2  0
  7 32  2  0
 32  3  1  0
 31  9  1  0
 21 12  1  0
 30 24  1  0
 19 16  1  0
M  END
$$$$
