
     RDKit          3D

 33 36  0  0  0  0  0  0  0  0999 V2000
  -13.0994   19.4993  -41.7585 C   0  0  0  0  0  0  0  0  0  0  0  0
  -14.4770   19.1354  -41.2776 C   0  0  0  0  0  0  0  0  0  0  0  0
  -14.7285   17.6390  -41.4497 C   0  0  0  0  0  0  0  0  0  0  0  0
  -14.5927   19.4088  -39.8627 N   0  0  0  0  0  0  0  0  0  0  0  0
  -14.7309   18.3950  -38.8778 C   0  0  0  0  0  0  0  0  0  0  0  0
  -13.8798   17.4696  -38.8996 O   0  0  0  0  0  0  0  0  0  0  0  0
  -15.7583   18.3936  -37.9086 N   0  0  0  0  0  0  0  0  0  0  0  0
  -16.9434   19.2221  -37.9192 C   0  0  0  0  0  0  0  0  0  0  0  0
  -18.0311   18.4779  -37.2086 C   0  0  0  0  0  0  0  0  0  0  0  0
  -17.2961   17.2817  -36.6438 C   0  0  2  0  0  0  0  0  0  0  0  0
  -17.8080   16.8560  -35.3831 N   0  0  0  0  0  0  0  0  0  0  0  0
  -16.9402   16.7481  -34.2660 C   0  0  0  0  0  0  0  0  0  0  0  0
  -16.0229   15.8319  -34.2989 N   0  0  0  0  0  0  0  0  0  0  0  0
  -15.0189   15.5006  -33.3123 C   0  0  0  0  0  0  0  0  0  0  0  0
  -13.9642   14.7826  -33.7863 C   0  0  0  0  0  0  0  0  0  0  0  0
  -12.9370   14.3899  -32.9287 C   0  0  0  0  0  0  0  0  0  0  0  0
  -11.8789   13.6673  -33.4136 F   0  0  0  0  0  0  0  0  0  0  0  0
  -12.9899   14.7307  -31.5930 C   0  0  0  0  0  0  0  0  0  0  0  0
  -14.0482   15.4577  -31.0908 C   0  0  0  0  0  0  0  0  0  0  0  0
  -15.0250   15.8155  -31.9747 C   0  0  0  0  0  0  0  0  0  0  0  0
  -16.0391   16.5733  -31.2750 N   0  0  0  0  0  0  0  0  0  0  0  0
  -16.2740   16.2945  -29.9112 C   0  0  0  0  0  0  0  0  0  0  0  0
  -16.5550   14.7817  -29.6804 C   0  0  0  0  0  0  0  0  0  0  0  0
  -16.5686   14.1245  -30.9232 F   0  0  0  0  0  0  0  0  0  0  0  0
  -17.8256   14.6118  -29.1705 F   0  0  0  0  0  0  0  0  0  0  0  0
  -16.8328   17.6223  -31.8808 C   0  0  0  0  0  0  0  0  0  0  0  0
  -17.1645   18.5945  -30.9710 C   0  0  0  0  0  0  0  0  0  0  0  0
  -17.8902   19.6673  -31.3694 C   0  0  0  0  0  0  0  0  0  0  0  0
  -18.2857   19.7678  -32.6897 C   0  0  0  0  0  0  0  0  0  0  0  0
  -19.2306   21.1606  -33.2184 Cl  0  0  0  0  0  0  0  0  0  0  0  0
  -17.9692   18.8076  -33.6374 C   0  0  0  0  0  0  0  0  0  0  0  0
  -17.2340   17.7243  -33.2175 C   0  0  0  0  0  0  0  0  0  0  0  0
  -15.8408   17.5719  -36.7139 C   0  0  0  0  0  0  0  0  0  0  0  0
  1  2  1  0
  2  3  1  0
  2  4  1  0
  4  5  1  0
  5  6  2  0
  5  7  1  0
  7  8  1  0
  8  9  1  0
  9 10  1  0
 10 11  1  1
 11 12  1  0
 12 13  2  0
 13 14  1  0
 14 15  2  0
 15 16  1  0
 16 17  1  0
 16 18  2  0
 18 19  1  0
 19 20  2  0
 20 21  1  0
 21 22  1  0
 22 23  1  0
 23 24  1  0
 23 25  1  0
 21 26  1  0
 26 27  2  0
 27 28  1  0
 28 29  2  0
 29 30  1  0
 29 31  1  0
 31 32  2  0
 10 33  1  0
 33  7  1  0
 32 12  1  0
 20 14  1  0
 32 26  1  0
M  END
$$$$
