
     RDKit          3D

 24 26  0  0  0  0  0  0  0  0999 V2000
  -12.3245   43.7273  -14.9877 F   0  0  0  0  0  0  0  0  0  0  0  0
  -12.5253   45.0120  -15.4562 C   0  0  0  0  0  0  0  0  0  0  0  0
  -11.6461   45.8989  -14.8546 F   0  0  0  0  0  0  0  0  0  0  0  0
  -13.8371   45.3687  -15.1415 F   0  0  0  0  0  0  0  0  0  0  0  0
  -12.2955   45.0854  -16.8571 O   0  0  0  0  0  0  0  0  0  0  0  0
  -13.2241   44.6847  -17.7853 C   0  0  0  0  0  0  0  0  0  0  0  0
  -14.1309   45.5959  -18.2730 C   0  0  0  0  0  0  0  0  0  0  0  0
  -15.0898   45.2418  -19.2122 C   0  0  0  0  0  0  0  0  0  0  0  0
  -15.1497   43.9408  -19.6820 C   0  0  0  0  0  0  0  0  0  0  0  0
  -16.1476   43.5489  -20.6690 C   0  0  0  0  0  0  0  0  0  0  0  0
  -16.5394   44.4535  -21.6413 C   0  0  0  0  0  0  0  0  0  0  0  0
  -17.4792   44.1124  -22.5837 C   0  0  0  0  0  0  0  0  0  0  0  0
  -18.0080   42.8484  -22.5205 C   0  0  0  0  0  0  0  0  0  0  0  0
  -18.9349   42.2723  -23.3166 N   0  0  0  0  0  0  0  0  0  0  0  0
  -19.1058   41.0678  -22.8550 N   0  0  0  0  0  0  0  0  0  0  0  0
  -18.3171   40.8465  -21.7835 C   0  0  0  0  0  0  0  0  0  0  0  0
  -18.2924   39.5656  -21.0438 C   0  0  0  0  0  0  0  0  0  0  0  0
  -17.0138   39.0802  -20.9164 F   0  0  0  0  0  0  0  0  0  0  0  0
  -19.0688   38.5977  -21.5944 F   0  0  0  0  0  0  0  0  0  0  0  0
  -18.7446   39.8448  -19.7527 F   0  0  0  0  0  0  0  0  0  0  0  0
  -17.6208   41.9787  -21.5730 N   0  0  0  0  0  0  0  0  0  0  0  0
  -16.7024   42.2878  -20.6387 C   0  0  0  0  0  0  0  0  0  0  0  0
  -14.2275   43.0268  -19.1818 C   0  0  0  0  0  0  0  0  0  0  0  0
  -13.2814   43.3899  -18.2507 C   0  0  0  0  0  0  0  0  0  0  0  0
  1  2  1  0
  2  3  1  0
  2  4  1  0
  2  5  1  0
  5  6  1  0
  6  7  2  0
  7  8  1  0
  8  9  2  0
  9 10  1  0
 10 11  1  0
 11 12  2  0
 12 13  1  0
 13 14  2  0
 14 15  1  0
 15 16  2  0
 16 17  1  0
 17 18  1  0
 17 19  1  0
 17 20  1  0
 16 21  1  0
 21 22  1  0
  9 23  1  0
 23 24  2  0
 24  6  1  0
 22 10  2  0
 21 13  1  0
M  END
$$$$
