
     RDKit          3D

 13 14  0  0  0  0  0  0  0  0999 V2000
  -22.1278   14.0191  -18.3144 O   0  0  0  0  0  0  0  0  0  0  0  0
  -21.4450   14.4021  -19.4735 C   0  0  0  0  0  0  0  0  0  0  0  0
  -21.7036   13.6657  -20.6094 C   0  0  0  0  0  0  0  0  0  0  0  0
  -23.0603   12.0474  -20.5892 I   0  0  0  0  0  0  0  0  0  0  0  0
  -21.0356   14.0347  -21.7585 C   0  0  0  0  0  0  0  0  0  0  0  0
  -20.1518   15.0962  -21.7522 C   0  0  0  0  0  0  0  0  0  0  0  0
  -19.1354   15.6539  -23.5108 I   0  0  0  0  0  0  0  0  0  0  0  0
  -19.8925   15.8339  -20.6152 C   0  0  0  0  0  0  0  0  0  0  0  0
  -19.0035   16.8929  -20.6320 C   0  0  0  0  0  0  0  0  0  0  0  0
  -18.7988   17.5723  -19.4760 C   0  0  0  0  0  0  0  0  0  0  0  0
  -19.4799   17.1862  -18.3306 C   0  0  0  0  0  0  0  0  0  0  0  0
  -20.3415   16.1568  -18.3222 N   0  0  0  0  0  0  0  0  0  0  0  0
  -20.5630   15.4611  -19.4682 C   0  0  0  0  0  0  0  0  0  0  0  0
  1  2  1  0
  2  3  2  0
  3  4  1  0
  3  5  1  0
  5  6  2  0
  6  7  1  0
  6  8  1  0
  8  9  2  0
  9 10  1  0
 10 11  2  0
 11 12  1  0
 12 13  2  0
 13  2  1  0
 13  8  1  0
M  END
$$$$
