
     RDKit          3D

 23 26  0  0  0  0  0  0  0  0999 V2000
  -16.2343   16.8309  -33.5751 C   0  0  0  0  0  0  0  0  0  0  0  0
  -15.9043   17.9739  -32.8611 C   0  0  0  0  0  0  0  0  0  0  0  0
  -16.9389   18.7399  -32.3400 C   0  0  0  0  0  0  0  0  0  0  0  0
  -18.2760   18.3939  -32.5148 C   0  0  0  0  0  0  0  0  0  0  0  0
  -19.3146   19.1919  -31.9497 N   0  0  0  0  0  0  0  0  0  0  0  0
  -20.6053   19.1958  -32.5434 C   0  0  0  0  0  0  0  0  0  0  0  0
  -20.9375   18.4994  -33.6427 N   0  0  0  0  0  0  0  0  0  0  0  0
  -22.1750   18.5525  -34.1376 C   0  0  0  0  0  0  0  0  0  0  0  0
  -22.5922   17.8198  -35.3286 C   0  0  0  0  0  0  0  0  0  0  0  0
  -23.8765   17.9086  -35.7992 C   0  0  0  0  0  0  0  0  0  0  0  0
  -24.2873   17.2156  -36.9362 C   0  0  0  0  0  0  0  0  0  0  0  0
  -23.4045   16.4125  -37.6264 C   0  0  0  0  0  0  0  0  0  0  0  0
  -22.1178   16.3180  -37.1628 C   0  0  0  0  0  0  0  0  0  0  0  0
  -21.7089   17.0143  -36.0227 C   0  0  0  0  0  0  0  0  0  0  0  0
  -23.0849   19.3126  -33.5185 N   0  0  0  0  0  0  0  0  0  0  0  0
  -22.8244   20.0290  -32.4238 C   0  0  0  0  0  0  0  0  0  0  0  0
  -23.8244   20.8053  -31.8148 C   0  0  0  0  0  0  0  0  0  0  0  0
  -23.5441   21.5255  -30.6975 C   0  0  0  0  0  0  0  0  0  0  0  0
  -22.2741   21.4817  -30.1776 C   0  0  0  0  0  0  0  0  0  0  0  0
  -21.2780   20.7147  -30.7753 C   0  0  0  0  0  0  0  0  0  0  0  0
  -21.5541   19.9865  -31.9014 C   0  0  0  0  0  0  0  0  0  0  0  0
  -18.5954   17.2585  -33.2249 C   0  0  0  0  0  0  0  0  0  0  0  0
  -17.5735   16.4761  -33.7555 C   0  0  0  0  0  0  0  0  0  0  0  0
  1  2  2  0
  2  3  1  0
  3  4  2  0
  4  5  1  0
  5  6  1  0
  6  7  2  0
  7  8  1  0
  8  9  1  0
  9 10  2  0
 10 11  1  0
 11 12  2  0
 12 13  1  0
 13 14  2  0
  8 15  2  0
 15 16  1  0
 16 17  2  0
 17 18  1  0
 18 19  2  0
 19 20  1  0
 20 21  2  0
  4 22  1  0
 22 23  2  0
 23  1  1  0
 21  6  1  0
 14  9  1  0
 21 16  1  0
M  END
$$$$
