
     RDKit          3D

 32 35  0  0  0  0  0  0  0  0999 V2000
  -21.3710   38.6313  -26.4421 C   0  0  0  0  0  0  0  0  0  0  0  0
  -20.8617   38.0261  -25.1689 C   0  0  0  0  0  0  0  0  0  0  0  0
  -19.4769   37.4459  -25.2527 C   0  0  0  0  0  0  0  0  0  0  0  0
  -18.9251   37.3007  -23.9039 C   0  0  0  0  0  0  0  0  0  0  0  0
  -18.6164   36.1215  -23.3248 N   0  0  0  0  0  0  0  0  0  0  0  0
  -18.1102   36.3064  -22.1259 N   0  0  0  0  0  0  0  0  0  0  0  0
  -17.6446   35.3317  -21.1601 C   0  0  0  0  0  0  0  0  0  0  0  0
  -18.0806   37.6400  -21.8991 C   0  0  0  0  0  0  0  0  0  0  0  0
  -17.6568   38.3657  -20.8081 C   0  0  0  0  0  0  0  0  0  0  0  0
  -17.1824   37.8081  -19.7736 O   0  0  0  0  0  0  0  0  0  0  0  0
  -17.7731   39.7193  -20.8954 N   0  0  0  0  0  0  0  0  0  0  0  0
  -18.2690   40.3434  -21.9709 C   0  0  0  0  0  0  0  0  0  0  0  0
  -18.3452   41.8136  -21.9648 C   0  0  0  0  0  0  0  0  0  0  0  0
  -19.3971   42.5404  -22.4528 C   0  0  0  0  0  0  0  0  0  0  0  0
  -19.4296   43.9231  -22.4387 C   0  0  0  0  0  0  0  0  0  0  0  0
  -20.8113   44.7597  -23.0796 S   0  0  0  0  0  6  0  0  0  0  0  0
  -22.0397   43.8521  -23.0413 O   0  0  0  0  0  0  0  0  0  0  0  0
  -21.1446   45.8754  -22.1101 O   0  0  0  0  0  0  0  0  0  0  0  0
  -20.6432   45.2989  -24.6679 N   0  0  0  0  0  0  0  0  0  0  0  0
  -21.7652   46.0137  -25.1322 C   0  0  0  0  0  0  0  0  0  0  0  0
  -21.7298   47.4986  -25.0282 C   0  0  0  0  0  0  0  0  0  0  0  0
  -20.4234   48.0418  -25.2144 N   0  0  0  0  0  0  0  0  0  0  0  0
  -19.5009   47.1348  -25.8389 C   0  0  0  0  0  0  0  0  0  0  0  0
  -19.3954   45.8459  -25.0382 C   0  0  0  0  0  0  0  0  0  0  0  0
  -18.3852   44.6419  -21.9233 C   0  0  0  0  0  0  0  0  0  0  0  0
  -17.3066   43.9128  -21.4229 C   0  0  0  0  0  0  0  0  0  0  0  0
  -17.2706   42.5367  -21.4355 C   0  0  0  0  0  0  0  0  0  0  0  0
  -16.2017   41.8194  -20.9407 O   0  0  0  0  0  0  0  0  0  0  0  0
  -14.8505   42.0775  -21.1562 C   0  0  0  0  0  0  0  0  0  0  0  0
  -13.9951   41.0834  -20.4484 C   0  0  0  0  0  0  0  0  0  0  0  0
  -18.6846   39.6404  -23.0416 N   0  0  0  0  0  0  0  0  0  0  0  0
  -18.5876   38.3022  -22.9987 C   0  0  0  0  0  0  0  0  0  0  0  0
  1  2  1  0
  2  3  1  0
  3  4  1  0
  4  5  2  0
  5  6  1  0
  6  7  1  0
  6  8  1  0
  8  9  1  0
  9 10  2  0
  9 11  1  0
 11 12  1  0
 12 13  1  0
 13 14  2  0
 14 15  1  0
 15 16  1  0
 16 17  2  0
 16 18  2  0
 16 19  1  0
 19 20  1  0
 20 21  1  0
 21 22  1  0
 22 23  1  0
 23 24  1  0
 15 25  2  0
 25 26  1  0
 26 27  2  0
 27 28  1  0
 28 29  1  0
 29 30  1  0
 12 31  2  0
 31 32  1  0
 32  4  1  0
 32  8  2  0
 27 13  1  0
 24 19  1  0
M  END
$$$$
