
     RDKit          3D

 35 37  0  0  0  0  0  0  0  0999 V2000
  -21.1408   25.5616  -43.0871 C   0  0  0  0  0  0  0  0  0  0  0  0
  -21.8314   24.4635  -42.3117 C   0  0  0  0  0  0  0  0  0  0  0  0
  -23.2860   24.8757  -42.1480 C   0  0  0  0  0  0  0  0  0  0  0  0
  -21.6977   22.8749  -43.1723 S   0  0  0  0  0  0  0  0  0  0  0  0
  -21.1479   21.6422  -41.9879 C   0  0  0  0  0  0  0  0  0  0  0  0
  -22.0630   21.0364  -41.1604 C   0  0  0  0  0  0  0  0  0  0  0  0
  -21.6655   20.0893  -40.2460 C   0  0  0  0  0  0  0  0  0  0  0  0
  -20.3279   19.7022  -40.1161 C   0  0  0  0  0  0  0  0  0  0  0  0
  -19.9570   18.6763  -39.1132 C   0  0  0  0  0  0  0  0  0  0  0  0
  -20.2483   19.1681  -37.6985 C   0  0  0  0  0  0  0  0  0  0  0  0
  -19.4315   18.4668  -36.7293 N   0  0  0  0  0  0  0  0  0  0  0  0
  -18.0521   18.8699  -36.5814 C   0  0  0  0  0  0  0  0  0  0  0  0
  -17.2710   17.6035  -36.2540 C   0  0  0  0  0  0  0  0  0  0  0  0
  -15.8460   18.0561  -35.8887 C   0  0  0  0  0  0  0  0  0  0  0  0
  -14.9849   16.8710  -35.5592 C   0  0  0  0  0  0  0  0  0  0  0  0
  -14.5043   16.9488  -34.1579 C   0  0  0  0  0  0  0  0  0  0  0  0
  -14.8049   15.6647  -33.3822 C   0  0  0  0  0  0  0  0  0  0  0  0
  -14.0841   15.7829  -32.0574 C   0  0  0  0  0  0  0  0  0  0  0  0
  -13.7122   17.2139  -31.7386 C   0  0  0  0  0  0  0  0  0  0  0  0
  -12.7502   17.7930  -32.7277 C   0  0  0  0  0  0  0  0  0  0  0  0
  -13.0051   17.1112  -34.0737 C   0  0  0  0  0  0  0  0  0  0  0  0
  -19.9244   17.4098  -35.9277 C   0  0  0  0  0  0  0  0  0  0  0  0
  -19.9326   17.5514  -34.6820 O   0  0  0  0  0  0  0  0  0  0  0  0
  -20.4059   16.2000  -36.5128 N   0  0  0  0  0  0  0  0  0  0  0  0
  -21.7502   15.7899  -36.2016 C   0  0  0  0  0  0  0  0  0  0  0  0
  -22.1549   14.5589  -36.9857 C   0  0  0  0  0  0  0  0  0  0  0  0
  -23.5080   14.1257  -36.4408 C   0  0  0  0  0  0  0  0  0  0  0  0
  -24.5290   15.2281  -36.5540 C   0  0  0  0  0  0  0  0  0  0  0  0
  -24.0612   16.5328  -35.9900 C   0  0  0  0  0  0  0  0  0  0  0  0
  -22.7308   16.8918  -36.6164 C   0  0  0  0  0  0  0  0  0  0  0  0
  -19.4261   20.3210  -40.9545 C   0  0  0  0  0  0  0  0  0  0  0  0
  -19.8197   21.2712  -41.8729 C   0  0  0  0  0  0  0  0  0  0  0  0
  -21.2223   24.3005  -40.9587 C   0  0  0  0  0  0  0  0  0  0  0  0
  -20.3834   25.1361  -40.5560 O   0  0  0  0  0  0  0  0  0  0  0  0
  -21.5598   23.2448  -40.1290 O   0  0  0  0  0  0  0  0  0  0  0  0
  1  2  1  0
  2  3  1  0
  2  4  1  0
  4  5  1  0
  5  6  2  0
  6  7  1  0
  7  8  2  0
  8  9  1  0
  9 10  1  0
 10 11  1  0
 11 12  1  0
 12 13  1  0
 13 14  1  0
 14 15  1  0
 15 16  1  0
 16 17  1  0
 17 18  1  0
 18 19  1  0
 19 20  1  0
 20 21  1  0
 11 22  1  0
 22 23  2  0
 22 24  1  0
 24 25  1  0
 25 26  1  0
 26 27  1  0
 27 28  1  0
 28 29  1  0
 29 30  1  0
  8 31  1  0
 31 32  2  0
  2 33  1  0
 33 34  2  0
 33 35  1  0
 32  5  1  0
 21 16  1  0
 30 25  1  0
M  END
$$$$
