
     RDKit          3D

 41 45  0  0  0  0  0  0  0  0999 V2000
  -23.8039   45.1933  -26.8010 C   0  0  0  0  0  0  0  0  0  0  0  0
  -23.1608   43.9912  -26.2239 C   0  0  0  0  0  0  0  0  0  0  0  0
  -23.7553   42.8139  -26.3239 N   0  0  0  0  0  0  0  0  0  0  0  0
  -23.2023   41.6636  -25.8053 C   0  0  0  0  0  0  0  0  0  0  0  0
  -22.0055   41.7022  -25.1620 C   0  0  0  0  0  0  0  0  0  0  0  0
  -21.4064   40.5507  -24.6193 N   0  0  0  0  0  0  0  0  0  0  0  0
  -20.0939   40.3541  -24.1891 C   0  0  0  0  0  0  0  0  0  0  0  0
  -19.3290   41.3412  -24.1264 O   0  0  0  0  0  0  0  0  0  0  0  0
  -19.5367   39.0705  -23.8014 C   0  0  0  0  0  0  0  0  0  0  0  0
  -19.8220   37.9141  -24.4646 C   0  0  0  0  0  0  0  0  0  0  0  0
  -19.2551   36.7150  -24.0440 C   0  0  0  0  0  0  0  0  0  0  0  0
  -18.3982   36.6164  -22.9686 C   0  0  0  0  0  0  0  0  0  0  0  0
  -17.8229   35.3179  -22.5645 C   0  0  0  0  0  0  0  0  0  0  0  0
  -18.7078   34.2177  -22.7497 N   0  0  0  0  0  0  0  0  0  0  0  0
  -19.9472   34.3685  -22.0425 C   0  0  0  0  0  0  0  0  0  0  0  0
  -20.5209   33.1411  -21.4515 C   0  0  0  0  0  0  0  0  0  0  0  0
  -20.3006   31.9171  -22.1476 N   0  0  0  0  0  0  0  0  0  0  0  0
  -20.4353   30.7435  -21.3185 C   0  0  0  0  0  0  0  0  0  0  0  0
  -19.0984   31.9005  -22.9430 C   0  0  0  0  0  0  0  0  0  0  0  0
  -18.1320   32.9469  -22.3657 C   0  0  0  0  0  0  0  0  0  0  0  0
  -18.1059   37.7959  -22.2905 C   0  0  0  0  0  0  0  0  0  0  0  0
  -17.2065   37.7856  -21.1379 C   0  0  0  0  0  0  0  0  0  0  0  0
  -17.6036   36.8398  -20.1812 F   0  0  0  0  0  0  0  0  0  0  0  0
  -17.0624   39.0342  -20.5454 F   0  0  0  0  0  0  0  0  0  0  0  0
  -15.9351   37.3997  -21.5261 F   0  0  0  0  0  0  0  0  0  0  0  0
  -18.6733   38.9849  -22.7141 C   0  0  0  0  0  0  0  0  0  0  0  0
  -21.3680   42.9447  -25.0509 C   0  0  0  0  0  0  0  0  0  0  0  0
  -21.9258   44.0751  -25.5684 C   0  0  0  0  0  0  0  0  0  0  0  0
  -21.3100   45.3320  -25.4751 N   0  0  0  0  0  0  0  0  0  0  0  0
  -21.3228   46.1970  -24.3639 C   0  0  0  0  0  0  0  0  0  0  0  0
  -20.6315   47.3325  -24.2399 N   0  0  0  0  0  0  0  0  0  0  0  0
  -20.6703   48.1265  -23.1627 C   0  0  0  0  0  0  0  0  0  0  0  0
  -21.4760   47.7731  -22.0814 C   0  0  0  0  0  0  0  0  0  0  0  0
  -22.1974   46.6114  -22.1817 C   0  0  0  0  0  0  0  0  0  0  0  0
  -23.0595   46.1716  -21.1069 C   0  0  0  0  0  0  0  0  0  0  0  0
  -23.6210   44.9336  -21.0967 C   0  0  0  0  0  0  0  0  0  0  0  0
  -24.4461   44.5485  -20.0365 C   0  0  0  0  0  0  0  0  0  0  0  0
  -24.6600   45.4557  -19.0280 C   0  0  0  0  0  0  0  0  0  0  0  0
  -24.1060   46.6778  -19.0377 N   0  0  0  0  0  0  0  0  0  0  0  0
  -23.3214   47.0444  -20.0454 C   0  0  0  0  0  0  0  0  0  0  0  0
  -22.1077   45.8662  -23.2938 N   0  0  0  0  0  0  0  0  0  0  0  0
  1  2  1  0
  2  3  2  0
  3  4  1  0
  4  5  2  0
  5  6  1  0
  6  7  1  0
  7  8  2  0
  7  9  1  0
  9 10  2  0
 10 11  1  0
 11 12  2  0
 12 13  1  0
 13 14  1  0
 14 15  1  0
 15 16  1  0
 16 17  1  0
 17 18  1  0
 17 19  1  0
 19 20  1  0
 12 21  1  0
 21 22  1  0
 22 23  1  0
 22 24  1  0
 22 25  1  0
 21 26  2  0
  5 27  1  0
 27 28  2  0
 28 29  1  0
 29 30  1  0
 30 31  2  0
 31 32  1  0
 32 33  2  0
 33 34  1  0
 34 35  1  0
 35 36  2  0
 36 37  1  0
 37 38  2  0
 38 39  1  0
 39 40  2  0
 34 41  2  0
 28  2  1  0
 41 30  1  0
 26  9  1  0
 40 35  1  0
 20 14  1  0
M  END
$$$$
