
     RDKit          3D

 27 29  0  0  0  0  0  0  0  0999 V2000
  -38.1543   12.6883  -23.3282 C   0  0  0  0  0  0  0  0  0  0  0  0
  -36.6630   12.4310  -23.3964 C   0  0  0  0  0  0  0  0  0  0  0  0
  -36.0161   13.4813  -24.1278 O   0  0  0  0  0  0  0  0  0  0  0  0
  -34.6444   13.5015  -24.3066 C   0  0  0  0  0  0  0  0  0  0  0  0
  -33.9934   12.5671  -23.7729 O   0  0  0  0  0  0  0  0  0  0  0  0
  -33.9631   14.5400  -25.0693 C   0  0  0  0  0  0  0  0  0  0  0  0
  -34.4770   15.1057  -26.2035 C   0  0  0  0  0  0  0  0  0  0  0  0
  -33.7954   16.0933  -26.9015 C   0  0  0  0  0  0  0  0  0  0  0  0
  -32.5705   16.5440  -26.4805 C   0  0  0  0  0  0  0  0  0  0  0  0
  -31.8261   17.4949  -27.0939 O   0  0  0  0  0  0  0  0  0  0  0  0
  -30.5164   17.8642  -26.8919 C   0  0  0  0  0  0  0  0  0  0  0  0
  -29.9507   18.5833  -28.0765 C   0  0  0  0  0  0  0  0  0  0  0  0
  -28.5117   19.0068  -27.9263 C   0  0  0  0  0  0  0  0  0  0  0  0
  -27.6504   17.8517  -27.6046 C   0  0  0  0  0  0  0  0  0  0  0  0
  -26.1911   18.1980  -27.4702 C   0  0  0  0  0  0  0  0  0  0  0  0
  -25.8245   19.3983  -28.1736 N   0  0  0  0  0  0  0  0  0  0  0  0
  -24.4091   19.6527  -28.2912 C   0  0  0  0  0  0  0  0  0  0  0  0
  -23.4608   18.9906  -27.5405 C   0  0  0  0  0  0  0  0  0  0  0  0
  -22.1025   19.2418  -27.6629 C   0  0  0  0  0  0  0  0  0  0  0  0
  -21.6860   20.1888  -28.5690 C   0  0  0  0  0  0  0  0  0  0  0  0
  -20.2314   20.4655  -28.7078 C   0  0  0  0  0  0  0  0  0  0  0  0
  -22.6234   20.8126  -29.2804 N   0  0  0  0  0  0  0  0  0  0  0  0
  -23.9175   20.5732  -29.1637 N   0  0  0  0  0  0  0  0  0  0  0  0
  -26.6930   20.3613  -28.7607 C   0  0  0  0  0  0  0  0  0  0  0  0
  -28.0316   19.8100  -29.1094 C   0  0  0  0  0  0  0  0  0  0  0  0
  -32.0387   15.9605  -25.3076 C   0  0  0  0  0  0  0  0  0  0  0  0
  -32.7246   14.9942  -24.6388 C   0  0  0  0  0  0  0  0  0  0  0  0
  1  2  1  0
  2  3  1  0
  3  4  1  0
  4  5  2  0
  4  6  1  0
  6  7  2  0
  7  8  1  0
  8  9  2  0
  9 10  1  0
 10 11  1  0
 11 12  1  0
 12 13  1  0
 13 14  1  0
 14 15  1  0
 15 16  1  0
 16 17  1  0
 17 18  2  0
 18 19  1  0
 19 20  2  0
 20 21  1  0
 20 22  1  0
 22 23  2  0
 16 24  1  0
 24 25  1  0
  9 26  1  0
 26 27  2  0
 27  6  1  0
 25 13  1  0
 23 17  1  0
M  END
$$$$
