
     RDKit          3D

 30 32  0  0  0  0  0  0  0  0999 V2000
  -18.1131   38.2769  -26.5001 C   0  0  0  0  0  0  0  0  0  0  0  0
  -18.9343   39.0157  -25.4619 C   0  0  0  0  0  0  0  0  0  0  0  0
  -19.2133   40.4113  -25.9322 C   0  0  0  0  0  0  0  0  0  0  0  0
  -20.2788   38.2954  -25.3248 C   0  0  2  0  0  0  0  0  0  0  0  0
  -21.1231   38.9846  -24.3055 C   0  0  0  0  0  0  0  0  0  0  0  0
  -22.4053   38.4432  -24.2663 O   0  0  0  0  0  0  0  0  0  0  0  0
  -20.0547   36.9275  -24.9919 N   0  0  0  0  0  0  0  0  0  0  0  0
  -19.4447   36.4836  -23.7862 C   0  0  0  0  0  0  0  0  0  0  0  0
  -18.8463   37.3498  -22.9507 N   0  0  0  0  0  0  0  0  0  0  0  0
  -18.2459   36.9857  -21.7874 C   0  0  0  0  0  0  0  0  0  0  0  0
  -17.6270   37.9577  -20.9497 N   0  0  0  0  0  0  0  0  0  0  0  0
  -17.6339   39.3336  -21.2307 C   0  0  0  0  0  0  0  0  0  0  0  0
  -17.9554   40.2186  -20.2320 C   0  0  0  0  0  0  0  0  0  0  0  0
  -17.9869   41.5675  -20.5094 C   0  0  0  0  0  0  0  0  0  0  0  0
  -17.6974   42.0171  -21.7792 C   0  0  0  0  0  0  0  0  0  0  0  0
  -17.7361   43.4545  -22.0706 C   0  0  0  0  0  0  0  0  0  0  0  0
  -17.8692   43.8282  -23.2493 O   0  0  0  0  0  0  0  0  0  0  0  0
  -17.6195   44.3664  -21.0086 O   0  0  0  0  0  0  0  0  0  0  0  0
  -17.3723   41.1262  -22.7905 C   0  0  0  0  0  0  0  0  0  0  0  0
  -17.0149   41.7593  -24.3969 Cl  0  0  0  0  0  0  0  0  0  0  0  0
  -17.3391   39.7833  -22.5200 C   0  0  0  0  0  0  0  0  0  0  0  0
  -18.2758   35.6387  -21.4851 C   0  0  0  0  0  0  0  0  0  0  0  0
  -17.8009   34.9227  -20.4489 N   0  0  0  0  0  0  0  0  0  0  0  0
  -18.1074   33.6021  -20.6455 C   0  0  0  0  0  0  0  0  0  0  0  0
  -18.7747   33.4741  -21.8007 N   0  0  0  0  0  0  0  0  0  0  0  0
  -19.2606   32.2239  -22.3347 C   0  0  0  0  0  0  0  0  0  0  0  0
  -18.9405   32.1468  -23.8026 C   0  0  0  0  0  0  0  0  0  0  0  0
  -20.7730   32.1172  -22.1629 C   0  0  0  0  0  0  0  0  0  0  0  0
  -18.8825   34.7147  -22.3219 C   0  0  0  0  0  0  0  0  0  0  0  0
  -19.4499   35.1701  -23.4503 N   0  0  0  0  0  0  0  0  0  0  0  0
  1  2  1  0
  2  3  1  0
  2  4  1  0
  4  5  1  1
  5  6  1  0
  4  7  1  0
  7  8  1  0
  8  9  2  0
  9 10  1  0
 10 11  1  0
 11 12  1  0
 12 13  2  0
 13 14  1  0
 14 15  2  0
 15 16  1  0
 16 17  2  0
 16 18  1  0
 15 19  1  0
 19 20  1  0
 19 21  2  0
 10 22  2  0
 22 23  1  0
 23 24  2  0
 24 25  1  0
 25 26  1  0
 26 27  1  0
 26 28  1  0
 25 29  1  0
 29 30  2  0
 30  8  1  0
 21 12  1  0
 29 22  1  0
M  END
$$$$
