
     RDKit          3D

 28 30  0  0  0  0  0  0  0  0999 V2000
  -24.2214   15.6500  -32.4649 C   0  0  0  0  0  0  0  0  0  0  0  0
  -23.2874   14.9880  -31.4880 C   0  0  0  0  0  0  0  0  0  0  0  0
  -21.5644   15.2037  -31.9517 S   0  0  0  0  0  4  0  0  0  0  0  0
  -20.7417   14.2904  -31.0204 O   0  0  0  0  0  0  0  0  0  0  0  0
  -21.0966   16.8932  -31.7379 C   0  0  0  0  0  0  0  0  0  0  0  0
  -19.8196   17.3056  -31.7796 N   0  0  0  0  0  0  0  0  0  0  0  0
  -19.4743   18.6066  -31.6137 C   0  0  0  0  0  0  0  0  0  0  0  0
  -18.0491   18.9942  -31.6711 C   0  0  0  0  0  0  0  0  0  0  0  0
  -17.6191   20.2521  -31.3407 C   0  0  0  0  0  0  0  0  0  0  0  0
  -16.2589   20.5733  -31.4100 C   0  0  0  0  0  0  0  0  0  0  0  0
  -15.3107   19.6543  -31.8066 C   0  0  0  0  0  0  0  0  0  0  0  0
  -15.7199   18.3851  -32.1436 C   0  0  0  0  0  0  0  0  0  0  0  0
  -14.8653   17.4248  -32.5439 O   0  0  0  0  0  0  0  0  0  0  0  0
  -13.6460   16.9479  -32.1943 C   0  0  0  0  0  0  0  0  0  0  0  0
  -13.5179   15.4962  -31.9430 C   0  0  0  0  0  0  0  0  0  0  0  0
  -12.5628   14.7885  -32.6872 C   0  0  0  0  0  0  0  0  0  0  0  0
  -12.4024   13.4310  -32.5388 C   0  0  0  0  0  0  0  0  0  0  0  0
  -13.1817   12.7221  -31.6477 C   0  0  0  0  0  0  0  0  0  0  0  0
  -14.1226   13.3936  -30.9092 C   0  0  0  0  0  0  0  0  0  0  0  0
  -14.2732   14.7583  -31.0688 C   0  0  0  0  0  0  0  0  0  0  0  0
  -17.1034   18.0886  -32.0636 C   0  0  0  0  0  0  0  0  0  0  0  0
  -20.4677   19.5209  -31.3973 C   0  0  0  0  0  0  0  0  0  0  0  0
  -21.8057   19.1101  -31.3504 C   0  0  0  0  0  0  0  0  0  0  0  0
  -22.8245   20.1547  -31.1126 C   0  0  0  0  0  0  0  0  0  0  0  0
  -22.6290   20.6514  -29.8225 F   0  0  0  0  0  0  0  0  0  0  0  0
  -24.1038   19.6688  -31.2740 F   0  0  0  0  0  0  0  0  0  0  0  0
  -22.5932   21.1699  -32.0433 F   0  0  0  0  0  0  0  0  0  0  0  0
  -22.0594   17.8077  -31.5239 N   0  0  0  0  0  0  0  0  0  0  0  0
  1  2  1  0
  2  3  1  0
  3  4  2  0
  3  5  1  0
  5  6  2  0
  6  7  1  0
  7  8  1  0
  8  9  2  0
  9 10  1  0
 10 11  2  0
 11 12  1  0
 12 13  1  0
 13 14  1  0
 14 15  1  0
 15 16  2  0
 16 17  1  0
 17 18  2  0
 18 19  1  0
 19 20  2  0
 12 21  2  0
  7 22  2  0
 22 23  1  0
 23 24  1  0
 24 25  1  0
 24 26  1  0
 24 27  1  0
 23 28  2  0
 28  5  1  0
 21  8  1  0
 20 15  1  0
M  END
$$$$
