
     RDKit          3D

 30 32  0  0  0  0  0  0  0  0999 V2000
  -20.4278   37.5230  -27.4555 C   0  0  0  0  0  0  0  0  0  0  0  0
  -19.8804   37.1615  -26.1344 C   0  0  0  0  0  0  0  0  0  0  0  0
  -18.5156   37.0716  -25.9834 C   0  0  0  0  0  0  0  0  0  0  0  0
  -17.9567   36.7347  -24.7594 C   0  0  0  0  0  0  0  0  0  0  0  0
  -18.8153   36.4919  -23.6946 C   0  0  0  0  0  0  0  0  0  0  0  0
  -18.0781   36.0694  -22.1645 S   0  0  0  0  0  6  0  0  0  0  0  0
  -16.5955   36.0480  -22.3481 O   0  0  0  0  0  0  0  0  0  0  0  0
  -18.5027   34.6644  -21.8313 O   0  0  0  0  0  0  0  0  0  0  0  0
  -18.5346   37.1859  -20.9364 N   0  0  0  0  0  0  0  0  0  0  0  0
  -18.1172   38.5374  -21.0298 C   0  0  0  0  0  0  0  0  0  0  0  0
  -18.6329   39.5413  -20.2354 C   0  0  0  0  0  0  0  0  0  0  0  0
  -18.2319   40.8585  -20.3201 C   0  0  0  0  0  0  0  0  0  0  0  0
  -17.2677   41.2004  -21.2417 C   0  0  0  0  0  0  0  0  0  0  0  0
  -16.8750   42.5676  -21.3050 N   0  0  0  0  0  0  0  0  0  0  0  0
  -15.9367   43.2065  -20.6218 N   0  0  0  0  0  0  0  0  0  0  0  0
  -15.8667   44.5052  -20.9681 C   0  0  0  0  0  0  0  0  0  0  0  0
  -14.9400   45.5448  -20.4232 C   0  0  0  0  0  0  0  0  0  0  0  0
  -13.6311   45.2803  -20.8374 F   0  0  0  0  0  0  0  0  0  0  0  0
  -15.3487   46.7777  -20.9068 F   0  0  0  0  0  0  0  0  0  0  0  0
  -14.9315   45.5056  -19.0540 F   0  0  0  0  0  0  0  0  0  0  0  0
  -16.8222   44.7059  -21.9342 C   0  0  0  0  0  0  0  0  0  0  0  0
  -17.4413   43.4947  -22.1342 C   0  0  0  0  0  0  0  0  0  0  0  0
  -18.5469   43.2075  -23.0871 C   0  0  0  0  0  0  0  0  0  0  0  0
  -18.6587   44.2678  -23.9677 F   0  0  0  0  0  0  0  0  0  0  0  0
  -19.7424   42.9887  -22.4367 F   0  0  0  0  0  0  0  0  0  0  0  0
  -18.2715   42.0791  -23.8442 F   0  0  0  0  0  0  0  0  0  0  0  0
  -16.7183   40.2365  -22.0612 C   0  0  0  0  0  0  0  0  0  0  0  0
  -17.1398   38.9276  -21.9528 C   0  0  0  0  0  0  0  0  0  0  0  0
  -20.1817   36.5758  -23.8221 C   0  0  0  0  0  0  0  0  0  0  0  0
  -20.7055   36.9120  -25.0486 C   0  0  0  0  0  0  0  0  0  0  0  0
  1  2  1  0
  2  3  2  0
  3  4  1  0
  4  5  2  0
  5  6  1  0
  6  7  2  0
  6  8  2  0
  6  9  1  0
  9 10  1  0
 10 11  2  0
 11 12  1  0
 12 13  2  0
 13 14  1  0
 14 15  1  0
 15 16  2  0
 16 17  1  0
 17 18  1  0
 17 19  1  0
 17 20  1  0
 16 21  1  0
 21 22  2  0
 22 23  1  0
 23 24  1  0
 23 25  1  0
 23 26  1  0
 13 27  1  0
 27 28  2  0
  5 29  1  0
 29 30  2  0
 30  2  1  0
 28 10  1  0
 22 14  1  0
M  END
$$$$
