
     RDKit          3D

 35 38  0  0  0  0  0  0  0  0999 V2000
  -24.9408   24.1399  -38.4930 O   0  0  0  0  0  0  0  0  0  0  0  0
  -23.8129   24.2908  -39.0328 C   0  0  0  0  0  0  0  0  0  0  0  0
  -23.7550   24.7199  -40.4546 C   0  0  0  0  0  0  0  0  0  0  0  0
  -22.4732   24.3957  -41.0881 C   0  0  0  0  0  0  0  0  0  0  0  0
  -21.4534   25.3147  -41.2416 C   0  0  0  0  0  0  0  0  0  0  0  0
  -20.2527   24.9600  -41.8503 C   0  0  0  0  0  0  0  0  0  0  0  0
  -20.0900   23.6794  -42.2998 C   0  0  0  0  0  0  0  0  0  0  0  0
  -21.0836   22.7367  -42.1641 C   0  0  0  0  0  0  0  0  0  0  0  0
  -22.2670   23.1169  -41.5551 C   0  0  0  0  0  0  0  0  0  0  0  0
  -22.6728   24.0413  -38.2491 N   0  0  0  0  0  0  0  0  0  0  0  0
  -22.4101   24.6695  -36.9869 C   0  0  0  0  0  0  0  0  0  0  0  0
  -21.5815   25.2871  -36.4337 N   0  0  0  0  0  0  0  0  0  0  0  0
  -21.6661   25.7308  -35.2175 N   0  0  0  0  0  0  0  0  0  0  0  0
  -22.5489   25.5955  -34.4945 C   0  0  0  0  0  0  0  0  0  0  0  0
  -23.1550   25.8540  -33.1206 C   0  0  0  0  0  0  0  0  0  0  0  0
  -24.3486   24.9405  -32.9734 C   0  0  0  0  0  0  0  0  0  0  0  0
  -25.0811   24.8982  -31.3656 S   0  0  0  0  0  0  0  0  0  0  0  0
  -24.6275   23.5605  -30.2810 C   0  0  0  0  0  0  0  0  0  0  0  0
  -25.4578   22.3278  -30.4377 C   0  0  0  0  0  0  0  0  0  0  0  0
  -26.6271   22.3094  -29.5014 C   0  0  0  0  0  0  0  0  0  0  0  0
  -27.5146   22.9592  -29.1232 N   0  0  0  0  0  0  0  0  0  0  0  0
  -28.4054   22.6183  -28.2429 N   0  0  0  0  0  0  0  0  0  0  0  0
  -28.4404   21.5748  -27.6889 C   0  0  0  0  0  0  0  0  0  0  0  0
  -29.2183   20.8758  -26.7153 N   0  0  0  0  0  0  0  0  0  0  0  0
  -29.1453   19.4780  -26.5112 C   0  0  0  0  0  0  0  0  0  0  0  0
  -28.3482   18.7916  -27.1861 O   0  0  0  0  0  0  0  0  0  0  0  0
  -30.0046   18.8427  -25.5101 C   0  0  0  0  0  0  0  0  0  0  0  0
  -30.6788   17.6636  -26.1059 C   0  0  0  0  0  0  0  0  0  0  0  0
  -30.8398   16.4740  -25.4012 C   0  0  0  0  0  0  0  0  0  0  0  0
  -31.4662   15.4022  -25.9758 C   0  0  0  0  0  0  0  0  0  0  0  0
  -31.9561   15.4842  -27.2837 C   0  0  0  0  0  0  0  0  0  0  0  0
  -31.8023   16.6638  -27.9968 C   0  0  0  0  0  0  0  0  0  0  0  0
  -31.1676   17.7268  -27.3929 C   0  0  0  0  0  0  0  0  0  0  0  0
  -26.9322   20.7333  -28.4643 S   0  0  0  0  0  0  0  0  0  0  0  0
  -23.7234   24.5840  -35.6199 S   0  0  0  0  0  0  0  0  0  0  0  0
  1  2  2  0
  2  3  1  0
  3  4  1  0
  4  5  2  0
  5  6  1  0
  6  7  2  0
  7  8  1  0
  8  9  2  0
  2 10  1  0
 10 11  1  0
 11 12  2  0
 12 13  1  0
 13 14  2  0
 14 15  1  0
 15 16  1  0
 16 17  1  0
 17 18  1  0
 18 19  1  0
 19 20  1  0
 20 21  2  0
 21 22  1  0
 22 23  2  0
 23 24  1  0
 24 25  1  0
 25 26  2  0
 25 27  1  0
 27 28  1  0
 28 29  2  0
 29 30  1  0
 30 31  2  0
 31 32  1  0
 32 33  2  0
 23 34  1  0
 14 35  1  0
  9  4  1  0
 35 11  1  0
 34 20  1  0
 33 28  1  0
M  END
$$$$
