
     RDKit          3D

 27 29  0  0  0  0  0  0  0  0999 V2000
  -15.2081   44.8160  -20.3641 C   0  0  0  0  0  0  0  0  0  0  0  0
  -16.5710   44.3999  -19.8266 C   0  0  0  0  0  0  0  0  0  0  0  0
  -17.5519   45.5131  -20.0372 C   0  0  0  0  0  0  0  0  0  0  0  0
  -17.0053   43.1286  -20.5009 C   0  0  0  0  0  0  0  0  0  0  0  0
  -17.1862   43.0911  -21.7394 O   0  0  0  0  0  0  0  0  0  0  0  0
  -17.2095   41.9720  -19.7294 N   0  0  0  0  0  0  0  0  0  0  0  0
  -17.7163   40.7506  -20.3410 C   0  0  0  0  0  0  0  0  0  0  0  0
  -18.0906   39.6901  -20.0752 N   0  0  0  0  0  0  0  0  0  0  0  0
  -18.5186   38.7156  -20.8517 C   0  0  0  0  0  0  0  0  0  0  0  0
  -18.5273   38.9842  -22.1758 C   0  0  0  0  0  0  0  0  0  0  0  0
  -18.8984   38.2570  -23.3824 C   0  0  0  0  0  0  0  0  0  0  0  0
  -19.1368   38.7927  -24.6290 C   0  0  0  0  0  0  0  0  0  0  0  0
  -19.4604   37.7688  -25.4979 C   0  0  0  0  0  0  0  0  0  0  0  0
  -19.7973   37.8857  -26.9588 C   0  0  0  0  0  0  0  0  0  0  0  0
  -20.6986   36.8888  -27.2678 F   0  0  0  0  0  0  0  0  0  0  0  0
  -20.3071   39.1420  -27.2012 F   0  0  0  0  0  0  0  0  0  0  0  0
  -19.4081   36.6542  -24.7561 N   0  0  0  0  0  0  0  0  0  0  0  0
  -19.0717   36.9328  -23.4835 N   0  0  0  0  0  0  0  0  0  0  0  0
  -18.9403   35.9447  -22.4706 C   0  0  0  0  0  0  0  0  0  0  0  0
  -17.7157   35.4263  -22.1245 C   0  0  0  0  0  0  0  0  0  0  0  0
  -16.2427   35.9581  -22.9038 Cl  0  0  0  0  0  0  0  0  0  0  0  0
  -17.5892   34.4508  -21.1348 C   0  0  0  0  0  0  0  0  0  0  0  0
  -18.7110   33.9812  -20.4746 C   0  0  0  0  0  0  0  0  0  0  0  0
  -19.9347   34.4986  -20.8197 C   0  0  0  0  0  0  0  0  0  0  0  0
  -20.0464   35.4662  -21.8036 C   0  0  0  0  0  0  0  0  0  0  0  0
  -21.6035   36.1379  -22.2565 Cl  0  0  0  0  0  0  0  0  0  0  0  0
  -17.8898   40.7005  -22.2216 S   0  0  0  0  0  0  0  0  0  0  0  0
  1  2  1  0
  2  3  1  0
  2  4  1  0
  4  5  2  0
  4  6  1  0
  6  7  1  0
  7  8  2  0
  8  9  1  0
  9 10  2  0
 10 11  1  0
 11 12  2  0
 12 13  1  0
 13 14  1  0
 14 15  1  0
 14 16  1  0
 13 17  2  0
 17 18  1  0
 18 19  1  0
 19 20  2  0
 20 21  1  0
 20 22  1  0
 22 23  2  0
 23 24  1  0
 24 25  2  0
 25 26  1  0
 10 27  1  0
 27  7  1  0
 18 11  1  0
 25 19  1  0
M  END
$$$$
