
     RDKit          3D

 16 17  0  0  0  0  0  0  0  0999 V2000
  -18.0069   42.7002  -21.0259 C   0  0  0  0  0  0  0  0  0  0  0  0
  -18.2904   41.7467  -22.1698 C   0  0  0  0  0  0  0  0  0  0  0  0
  -19.2339   40.7180  -21.7612 N   0  0  0  0  0  0  0  0  0  0  0  0
  -18.8308   39.3736  -21.6877 C   0  0  0  0  0  0  0  0  0  0  0  0
  -17.7679   38.8460  -22.0780 N   0  0  0  0  0  0  0  0  0  0  0  0
  -17.5636   37.4656  -21.9060 C   0  0  1  0  0  0  0  0  0  0  0  0
  -18.3968   36.8992  -20.8164 C   0  0  2  0  0  0  0  0  0  0  0  0
  -18.7583   35.6050  -20.8802 O   0  0  0  0  0  0  0  0  0  0  0  0
  -19.0490   35.0746  -22.1039 C   0  0  2  0  0  0  0  0  0  0  0  0
  -19.5107   33.6620  -22.0096 C   0  0  0  0  0  0  0  0  0  0  0  0
  -18.5781   32.8016  -21.4789 O   0  0  0  0  0  0  0  0  0  0  0  0
  -17.8205   35.2361  -22.9730 C   0  0  1  0  0  0  0  0  0  0  0  0
  -17.9402   34.5569  -24.1737 O   0  0  0  0  0  0  0  0  0  0  0  0
  -17.6714   36.7231  -23.2157 C   0  0  2  0  0  0  0  0  0  0  0  0
  -16.4983   36.9365  -23.9365 O   0  0  0  0  0  0  0  0  0  0  0  0
  -19.8205   38.0698  -20.9596 S   0  0  0  0  0  0  0  0  0  0  0  0
  1  2  1  0
  2  3  1  0
  3  4  1  0
  4  5  2  0
  6  5  1  6
  6  7  1  0
  7  8  1  6
  8  9  1  0
  9 10  1  1
 10 11  1  0
  9 12  1  0
 12 13  1  6
 12 14  1  0
 14 15  1  6
  7 16  1  0
 16  4  1  0
 14  6  1  0
M  END
$$$$
