
     RDKit          3D

 15 17  0  0  0  0  0  0  0  0999 V2000
  -11.8208    2.9012  -30.9753 C   0  0  0  0  0  0  0  0  0  0  0  0
  -12.2353    1.5879  -30.7576 O   0  0  0  0  0  0  0  0  0  0  0  0
  -13.4742    1.0695  -31.0364 C   0  0  0  0  0  0  0  0  0  0  0  0
  -13.6064   -0.3014  -31.0697 C   0  0  0  0  0  0  0  0  0  0  0  0
  -14.8058   -0.9384  -31.3400 C   0  0  0  0  0  0  0  0  0  0  0  0
  -15.9344   -0.1787  -31.5907 C   0  0  0  0  0  0  0  0  0  0  0  0
  -17.2159   -0.5046  -31.8785 N   0  0  0  0  0  0  0  0  0  0  0  0
  -17.9371    0.5956  -32.0370 C   0  0  0  0  0  0  0  0  0  0  0  0
  -17.0903    1.6673  -31.8445 C   0  0  0  0  0  0  0  0  0  0  0  0
  -15.8041    1.1953  -31.5578 C   0  0  0  0  0  0  0  0  0  0  0  0
  -14.6026    1.8153  -31.2871 C   0  0  0  0  0  0  0  0  0  0  0  0
  -17.5420    3.0714  -31.9419 C   0  0  0  0  0  0  0  0  0  0  0  0
  -19.0177    3.2235  -31.8077 C   0  0  0  0  0  0  0  0  0  0  0  0
  -19.7213    2.0245  -31.4774 N   0  0  0  0  0  0  0  0  0  0  0  0
  -19.3574    0.9261  -32.3542 C   0  0  0  0  0  0  0  0  0  0  0  0
  1  2  1  0
  2  3  1  0
  3  4  2  0
  4  5  1  0
  5  6  2  0
  6  7  1  0
  7  8  1  0
  8  9  2  0
  9 10  1  0
 10 11  2  0
  9 12  1  0
 12 13  1  0
 13 14  1  0
 14 15  1  0
 11  3  1  0
 10  6  1  0
 15  8  1  0
M  END
$$$$
