
     RDKit          3D

 14 15  0  0  0  0  0  0  0  0999 V2000
  -21.6679   40.2735  -25.7899 N   0  0  0  0  0  0  0  0  0  0  0  0
  -20.6521   41.0395  -25.1213 C   0  0  0  0  0  0  0  0  0  0  0  0
  -19.9978   40.5657  -24.0051 C   0  0  0  0  0  0  0  0  0  0  0  0
  -19.0107   41.3314  -23.3720 C   0  0  0  0  0  0  0  0  0  0  0  0
  -18.3524   40.7839  -22.1916 C   0  0  0  0  0  0  0  0  0  0  0  0
  -18.1054   39.4464  -22.0000 C   0  0  0  0  0  0  0  0  0  0  0  0
  -17.4684   38.9723  -20.8517 C   0  0  0  0  0  0  0  0  0  0  0  0
  -17.0828   39.8499  -19.8997 N   0  0  0  0  0  0  0  0  0  0  0  0
  -17.3125   41.1557  -20.0644 C   0  0  0  0  0  0  0  0  0  0  0  0
  -17.9424   41.6524  -21.1936 C   0  0  0  0  0  0  0  0  0  0  0  0
  -18.7348   42.5509  -23.9090 C   0  0  0  0  0  0  0  0  0  0  0  0
  -19.3734   43.0141  -24.9988 N   0  0  0  0  0  0  0  0  0  0  0  0
  -20.3337   42.2849  -25.6259 C   0  0  0  0  0  0  0  0  0  0  0  0
  -20.9283   42.7426  -26.6603 O   0  0  0  0  0  0  0  0  0  0  0  0
  1  2  1  0
  2  3  2  0
  3  4  1  0
  4  5  1  0
  5  6  2  0
  6  7  1  0
  7  8  2  0
  8  9  1  0
  9 10  2  0
  4 11  2  0
 11 12  1  0
 12 13  1  0
 13 14  2  0
 13  2  1  0
 10  5  1  0
M  END
$$$$
