
     RDKit          3D

 24 25  0  0  0  0  0  0  0  0999 V2000
  -27.7085   18.1327  -29.9630 N   0  0  0  0  0  0  0  0  0  0  0  0
  -27.1150   18.6356  -28.7764 C   0  0  0  0  0  0  0  0  0  0  0  0
  -27.8220   18.7918  -27.6051 C   0  0  0  0  0  0  0  0  0  0  0  0
  -27.2261   19.2842  -26.4567 C   0  0  0  0  0  0  0  0  0  0  0  0
  -25.8904   19.6315  -26.4715 C   0  0  0  0  0  0  0  0  0  0  0  0
  -25.2085   19.4640  -27.6589 C   0  0  0  0  0  0  0  0  0  0  0  0
  -25.7822   18.9758  -28.8129 C   0  0  0  0  0  0  0  0  0  0  0  0
  -24.9939   18.8371  -29.9978 N   0  0  0  0  0  0  0  0  0  0  0  0
  -23.5914   19.0604  -30.0060 C   0  0  0  0  0  0  0  0  0  0  0  0
  -23.0647   19.4872  -28.9519 O   0  0  0  0  0  0  0  0  0  0  0  0
  -22.7526   18.7980  -31.2319 C   0  0  0  0  0  0  0  0  0  0  0  0
  -22.0349   20.0467  -31.5452 C   0  0  0  0  0  0  0  0  0  0  0  0
  -20.5743   20.0684  -31.3637 C   0  0  0  0  0  0  0  0  0  0  0  0
  -19.7388   20.5109  -32.4803 C   0  0  0  0  0  0  0  0  0  0  0  0
  -18.2699   20.5205  -32.3563 C   0  0  0  0  0  0  0  0  0  0  0  0
  -17.8355   19.0756  -32.6205 C   0  0  0  0  0  0  0  0  0  0  0  0
  -17.7261   18.6083  -33.7621 O   0  0  0  0  0  0  0  0  0  0  0  0
  -17.5604   18.2861  -31.4884 N   0  0  0  0  0  0  0  0  0  0  0  0
  -16.7931   17.1097  -31.6540 C   0  0  0  0  0  0  0  0  0  0  0  0
  -16.1362   16.9020  -32.8428 C   0  0  0  0  0  0  0  0  0  0  0  0
  -15.3928   15.7697  -33.0131 C   0  0  0  0  0  0  0  0  0  0  0  0
  -15.2952   14.8379  -32.0099 C   0  0  0  0  0  0  0  0  0  0  0  0
  -15.9403   15.0143  -30.8064 C   0  0  0  0  0  0  0  0  0  0  0  0
  -16.7001   16.1804  -30.6438 C   0  0  0  0  0  0  0  0  0  0  0  0
  1  2  1  0
  2  3  2  0
  3  4  1  0
  4  5  2  0
  5  6  1  0
  6  7  2  0
  7  8  1  0
  8  9  1  0
  9 10  2  0
  9 11  1  0
 11 12  1  0
 12 13  1  0
 13 14  1  0
 14 15  1  0
 15 16  1  0
 16 17  2  0
 16 18  1  0
 18 19  1  0
 19 20  2  0
 20 21  1  0
 21 22  2  0
 22 23  1  0
 23 24  2  0
  7  2  1  0
 24 19  1  0
M  END
$$$$
