
     RDKit          3D

 40 41  0  0  0  0  0  0  0  0999 V2000
  -26.0468   13.0915  -24.3559 C   0  0  0  0  0  0  0  0  0  0  0  0
  -25.1474   13.9147  -25.7234 S   0  0  0  0  0  0  0  0  0  0  0  0
  -26.2272   15.0456  -26.5465 C   0  0  0  0  0  0  0  0  0  0  0  0
  -25.7443   15.8009  -27.6918 C   0  0  0  0  0  0  0  0  0  0  0  0
  -26.6204   16.2325  -28.8204 C   0  0  2  0  0  0  0  0  0  0  0  0
  -25.6514   16.8262  -29.8065 N   0  0  0  0  0  0  0  0  0  0  0  0
  -24.9472   18.0025  -29.4899 C   0  0  0  0  0  0  0  0  0  0  0  0
  -25.1827   18.4164  -28.2712 O   0  0  0  0  0  0  0  0  0  0  0  0
  -24.0387   18.7757  -30.3307 C   0  0  2  0  0  0  0  0  0  0  0  0
  -24.2157   20.2345  -30.4777 C   0  0  0  0  0  0  0  0  0  0  0  0
  -23.1638   20.9820  -31.1775 C   0  0  0  0  0  0  0  0  0  0  0  0
  -23.4799   21.4038  -32.4750 C   0  0  0  0  0  0  0  0  0  0  0  0
  -22.5896   22.1494  -33.2034 C   0  0  0  0  0  0  0  0  0  0  0  0
  -21.3563   22.5094  -32.6876 C   0  0  0  0  0  0  0  0  0  0  0  0
  -21.0824   22.0765  -31.4098 C   0  0  0  0  0  0  0  0  0  0  0  0
  -21.9510   21.3267  -30.6476 C   0  0  0  0  0  0  0  0  0  0  0  0
  -23.9418   18.1422  -31.6697 N   0  0  0  0  0  0  0  0  0  0  0  0
  -23.3559   16.8720  -31.8367 C   0  0  0  0  0  0  0  0  0  0  0  0
  -23.2176   16.1724  -30.7689 O   0  0  0  0  0  0  0  0  0  0  0  0
  -22.9183   16.3471  -33.1338 C   0  0  0  0  0  0  0  0  0  0  0  0
  -22.9620   17.2690  -34.2274 N   0  0  0  0  0  0  0  0  0  0  0  0
  -22.6016   16.8180  -35.5464 C   0  0  0  0  0  0  0  0  0  0  0  0
  -22.2448   15.6314  -35.7256 O   0  0  0  0  0  0  0  0  0  0  0  0
  -22.6489   17.7480  -36.7006 C   0  0  0  0  0  0  0  0  0  0  0  0
  -21.4245   17.6651  -37.4662 N   0  0  0  0  0  0  0  0  0  0  0  0
  -20.2352   18.2840  -37.0282 C   0  0  0  0  0  0  0  0  0  0  0  0
  -20.2753   18.9899  -35.9818 O   0  0  0  0  0  0  0  0  0  0  0  0
  -18.9394   18.1410  -37.7451 C   0  0  1  0  0  0  0  0  0  0  0  0
  -18.2056   19.3885  -37.7704 N   0  0  0  0  0  0  0  0  0  0  0  0
  -18.0973   17.0522  -37.1098 C   0  0  0  0  0  0  0  0  0  0  0  0
  -16.7638   17.6206  -36.8226 C   0  0  0  0  0  0  0  0  0  0  0  0
  -16.4943   18.9233  -37.1620 C   0  0  0  0  0  0  0  0  0  0  0  0
  -15.2270   19.4560  -36.8879 C   0  0  0  0  0  0  0  0  0  0  0  0
  -14.2693   18.6678  -36.2829 C   0  0  0  0  0  0  0  0  0  0  0  0
  -13.0138   19.2249  -36.0216 O   0  0  0  0  0  0  0  0  0  0  0  0
  -14.5400   17.3618  -35.9426 C   0  0  0  0  0  0  0  0  0  0  0  0
  -15.8094   16.8536  -36.2256 C   0  0  0  0  0  0  0  0  0  0  0  0
  -27.3918   17.4738  -28.4196 C   0  0  0  0  0  0  0  0  0  0  0  0
  -26.8727   18.6270  -28.6627 O   0  0  0  0  0  0  0  0  0  0  0  0
  -28.6080   17.4956  -27.8129 O   0  0  0  0  0  0  0  0  0  0  0  0
  1  2  1  0
  2  3  1  0
  3  4  1  0
  5  4  1  1
  5  6  1  0
  6  7  1  0
  7  8  2  0
  7  9  1  0
  9 10  1  6
 10 11  1  0
 11 12  2  0
 12 13  1  0
 13 14  2  0
 14 15  1  0
 15 16  2  0
  9 17  1  0
 17 18  1  0
 18 19  2  0
 18 20  1  0
 20 21  1  0
 21 22  1  0
 22 23  2  0
 22 24  1  0
 24 25  1  0
 25 26  1  0
 26 27  2  0
 26 28  1  0
 28 29  1  1
 28 30  1  0
 30 31  1  0
 31 32  2  0
 32 33  1  0
 33 34  2  0
 34 35  1  0
 34 36  1  0
 36 37  2  0
  5 38  1  0
 38 39  2  0
 38 40  1  0
 16 11  1  0
 37 31  1  0
M  END
$$$$
