
     RDKit          3D

 21 23  0  0  0  0  0  0  0  0999 V2000
  -20.8124   37.3248  -21.5951 C   0  0  0  0  0  0  0  0  0  0  0  0
  -19.4279   37.7213  -21.9659 C   0  0  0  0  0  0  0  0  0  0  0  0
  -18.8643   38.8358  -21.5668 C   0  0  0  0  0  0  0  0  0  0  0  0
  -18.1734   39.0892  -20.2942 C   0  0  0  0  0  0  0  0  0  0  0  0
  -18.0109   38.2886  -19.3589 O   0  0  0  0  0  0  0  0  0  0  0  0
  -17.7039   40.4273  -20.2844 N   0  0  0  0  0  0  0  0  0  0  0  0
  -18.0736   41.0358  -21.5078 C   0  0  0  0  0  0  0  0  0  0  0  0
  -17.8554   42.3164  -21.9743 C   0  0  0  0  0  0  0  0  0  0  0  0
  -18.3233   42.6761  -23.2137 C   0  0  0  0  0  0  0  0  0  0  0  0
  -19.0057   41.7787  -23.9961 C   0  0  0  0  0  0  0  0  0  0  0  0
  -19.4736   42.2028  -25.2701 N   0  0  0  0  0  0  0  0  0  0  0  0
  -19.1735   43.4566  -25.8465 C   0  0  0  0  0  0  0  0  0  0  0  0
  -19.7103   43.7298  -27.1524 N   0  0  0  0  0  0  0  0  0  0  0  0
  -18.4684   44.2582  -25.2085 O   0  0  0  0  0  0  0  0  0  0  0  0
  -19.2386   40.4683  -23.5395 C   0  0  0  0  0  0  0  0  0  0  0  0
  -18.7709   40.1160  -22.3050 C   0  0  0  0  0  0  0  0  0  0  0  0
  -18.7072   36.8341  -22.8675 C   0  0  0  0  0  0  0  0  0  0  0  0
  -17.4571   37.0536  -23.3987 C   0  0  0  0  0  0  0  0  0  0  0  0
  -17.1334   35.9620  -24.1726 C   0  0  0  0  0  0  0  0  0  0  0  0
  -18.1825   35.0760  -24.1162 C   0  0  0  0  0  0  0  0  0  0  0  0
  -19.1103   35.6263  -23.3271 N   0  0  0  0  0  0  0  0  0  0  0  0
  1  2  1  0
  2  3  2  0
  3  4  1  0
  4  5  2  0
  4  6  1  0
  6  7  1  0
  7  8  2  0
  8  9  1  0
  9 10  2  0
 10 11  1  0
 11 12  1  0
 12 13  1  0
 12 14  2  0
 10 15  1  0
 15 16  2  0
  2 17  1  0
 17 18  2  0
 18 19  1  0
 19 20  2  0
 20 21  1  0
 16  3  1  0
 21 17  1  0
 16  7  1  0
M  END
$$$$
