
     RDKit          3D

 31 34  0  0  0  0  0  0  0  0999 V2000
  -26.1568   22.9497  -29.0209 C   0  0  0  0  0  0  0  0  0  0  0  0
  -27.5252   22.7219  -28.7613 O   0  0  0  0  0  0  0  0  0  0  0  0
  -28.0588   21.4484  -28.5779 C   0  0  0  0  0  0  0  0  0  0  0  0
  -27.2848   20.3081  -28.6378 C   0  0  0  0  0  0  0  0  0  0  0  0
  -27.8199   19.0342  -28.4542 C   0  0  0  0  0  0  0  0  0  0  0  0
  -26.9796   17.8434  -28.5177 C   0  0  0  0  0  0  0  0  0  0  0  0
  -26.2904   17.5018  -29.6776 C   0  0  0  0  0  0  0  0  0  0  0  0
  -25.4818   16.3760  -29.7586 C   0  0  0  0  0  0  0  0  0  0  0  0
  -24.7803   16.0472  -30.9734 C   0  0  0  0  0  0  0  0  0  0  0  0
  -24.6935   14.7554  -31.4223 C   0  0  0  0  0  0  0  0  0  0  0  0
  -24.0366   14.3900  -32.5742 C   0  0  0  0  0  0  0  0  0  0  0  0
  -23.4260   15.3386  -33.3376 C   0  0  0  0  0  0  0  0  0  0  0  0
  -22.7352   15.0287  -34.5376 N   0  0  0  0  0  0  0  0  0  0  0  0
  -22.9195   13.7422  -35.1782 C   0  0  0  0  0  0  0  0  0  0  0  0
  -22.4448   13.8455  -36.6318 C   0  0  0  0  0  0  0  0  0  0  0  0
  -21.0642   14.2038  -36.7132 N   0  0  0  0  0  0  0  0  0  0  0  0
  -20.6614   15.1330  -35.7016 C   0  0  0  0  0  0  0  0  0  0  0  0
  -21.8298   15.9577  -35.1676 C   0  0  0  0  0  0  0  0  0  0  0  0
  -23.4917   16.6533  -32.9174 C   0  0  0  0  0  0  0  0  0  0  0  0
  -24.1619   17.0087  -31.7463 C   0  0  0  0  0  0  0  0  0  0  0  0
  -25.3497   15.5588  -28.6545 C   0  0  0  0  0  0  0  0  0  0  0  0
  -26.0176   15.8947  -27.5395 N   0  0  0  0  0  0  0  0  0  0  0  0
  -26.8141   16.9953  -27.4451 C   0  0  0  0  0  0  0  0  0  0  0  0
  -27.5047   17.2577  -26.1611 C   0  0  0  0  0  0  0  0  0  0  0  0
  -29.1728   18.9642  -28.2071 C   0  0  0  0  0  0  0  0  0  0  0  0
  -29.9535   20.1170  -28.1469 C   0  0  0  0  0  0  0  0  0  0  0  0
  -31.2970   20.0135  -27.8993 O   0  0  0  0  0  0  0  0  0  0  0  0
  -32.1240   19.1316  -28.6392 C   0  0  0  0  0  0  0  0  0  0  0  0
  -29.4135   21.3721  -28.3302 C   0  0  0  0  0  0  0  0  0  0  0  0
  -30.1866   22.5278  -28.2716 O   0  0  0  0  0  0  0  0  0  0  0  0
  -30.1803   23.2691  -27.0480 C   0  0  0  0  0  0  0  0  0  0  0  0
  1  2  1  0
  2  3  1  0
  3  4  2  0
  4  5  1  0
  5  6  1  0
  6  7  2  0
  7  8  1  0
  8  9  1  0
  9 10  2  0
 10 11  1  0
 11 12  2  0
 12 13  1  0
 13 14  1  0
 14 15  1  0
 15 16  1  0
 16 17  1  0
 17 18  1  0
 12 19  1  0
 19 20  2  0
  8 21  2  0
 21 22  1  0
 22 23  2  0
 23 24  1  0
  5 25  2  0
 25 26  1  0
 26 27  1  0
 27 28  1  0
 26 29  2  0
 29 30  1  0
 30 31  1  0
 29  3  1  0
 23  6  1  0
 20  9  1  0
 18 13  1  0
M  END
$$$$
