
     RDKit          3D

 24 27  0  0  0  0  0  0  0  0999 V2000
  -22.7519   16.1189  -33.9862 C   0  0  0  0  0  0  0  0  0  0  0  0
  -21.4328   15.6994  -33.7006 O   0  0  0  0  0  0  0  0  0  0  0  0
  -20.3995   16.1806  -34.4854 C   0  0  0  0  0  0  0  0  0  0  0  0
  -19.8064   15.3739  -35.4307 C   0  0  0  0  0  0  0  0  0  0  0  0
  -18.7740   15.8365  -36.2230 C   0  0  0  0  0  0  0  0  0  0  0  0
  -18.3099   17.1293  -36.0835 C   0  0  0  0  0  0  0  0  0  0  0  0
  -17.1926   17.6316  -36.8531 C   0  0  0  0  0  0  0  0  0  0  0  0
  -17.3187   18.5987  -37.8605 C   0  0  0  0  0  0  0  0  0  0  0  0
  -16.1259   18.8725  -38.3685 N   0  0  0  0  0  0  0  0  0  0  0  0
  -15.2102   18.1100  -37.7233 C   0  0  0  0  0  0  0  0  0  0  0  0
  -13.8862   17.9802  -37.8582 N   0  0  0  0  0  0  0  0  0  0  0  0
  -13.1792   17.1331  -37.1181 C   0  0  0  0  0  0  0  0  0  0  0  0
  -13.7850   16.3459  -36.1716 C   0  0  0  0  0  0  0  0  0  0  0  0
  -15.1490   16.4395  -35.9889 C   0  0  0  0  0  0  0  0  0  0  0  0
  -15.8019   15.6069  -34.9443 C   0  0  0  0  0  0  0  0  0  0  0  0
  -15.8247   14.2669  -34.9275 C   0  0  0  0  0  0  0  0  0  0  0  0
  -16.3895   13.5992  -33.9165 C   0  0  0  0  0  0  0  0  0  0  0  0
  -16.9749   14.9518  -32.8313 S   0  0  0  0  0  0  0  0  0  0  0  0
  -16.3840   16.2365  -33.8780 C   0  0  0  0  0  0  0  0  0  0  0  0
  -15.8581   17.3159  -36.7595 C   0  0  0  0  0  0  0  0  0  0  0  0
  -18.8864   17.9536  -35.1463 C   0  0  0  0  0  0  0  0  0  0  0  0
  -18.4635   19.2738  -34.9541 O   0  0  0  0  0  0  0  0  0  0  0  0
  -19.2777   20.2792  -34.4462 C   0  0  0  0  0  0  0  0  0  0  0  0
  -19.9163   17.4748  -34.3637 C   0  0  0  0  0  0  0  0  0  0  0  0
  1  2  1  0
  2  3  1  0
  3  4  2  0
  4  5  1  0
  5  6  2  0
  6  7  1  0
  7  8  2  0
  8  9  1  0
  9 10  1  0
 10 11  2  0
 11 12  1  0
 12 13  2  0
 13 14  1  0
 14 15  1  0
 15 16  1  0
 16 17  2  0
 17 18  1  0
 18 19  1  0
 14 20  2  0
  6 21  1  0
 21 22  1  0
 22 23  1  0
 21 24  2  0
 24  3  1  0
 20  7  1  0
 20 10  1  0
 19 15  2  0
M  END
$$$$
