
     RDKit          3D

 33 36  0  0  0  0  0  0  0  0999 V2000
  -24.6265   20.6220  -36.5374 C   0  0  0  0  0  0  0  0  0  0  0  0
  -23.4544   20.1590  -36.7866 C   0  0  0  0  0  0  0  0  0  0  0  0
  -22.5605   19.4848  -35.9289 C   0  0  0  0  0  0  0  0  0  0  0  0
  -22.6926   19.6331  -34.6327 O   0  0  0  0  0  0  0  0  0  0  0  0
  -21.5044   18.6415  -36.2855 N   0  0  0  0  0  0  0  0  0  0  0  0
  -20.2416   18.7423  -35.4970 C   0  0  0  0  0  0  0  0  0  0  0  0
  -19.9273   17.4196  -34.9047 C   0  0  0  0  0  0  0  0  0  0  0  0
  -19.8408   16.3440  -35.9970 C   0  0  0  0  0  0  0  0  0  0  0  0
  -18.5733   15.8519  -36.0166 O   0  0  0  0  0  0  0  0  0  0  0  0
  -17.3710   16.4014  -35.7611 C   0  0  0  0  0  0  0  0  0  0  0  0
  -16.6320   16.8424  -36.8764 C   0  0  0  0  0  0  0  0  0  0  0  0
  -15.4020   17.4118  -36.7043 C   0  0  0  0  0  0  0  0  0  0  0  0
  -14.7114   17.8290  -37.8090 C   0  0  0  0  0  0  0  0  0  0  0  0
  -15.2076   17.7008  -39.1296 N   0  0  0  0  0  0  0  0  0  0  0  0
  -14.3956   18.1214  -40.2387 C   0  0  0  0  0  0  0  0  0  0  0  0
  -13.1631   17.5467  -40.4951 C   0  0  0  0  0  0  0  0  0  0  0  0
  -12.3933   17.9576  -41.5607 C   0  0  0  0  0  0  0  0  0  0  0  0
  -12.8163   18.9543  -42.4128 C   0  0  0  0  0  0  0  0  0  0  0  0
  -11.8349   19.4743  -43.7667 Cl  0  0  0  0  0  0  0  0  0  0  0  0
  -14.0366   19.5260  -42.1620 C   0  0  0  0  0  0  0  0  0  0  0  0
  -14.6279   20.8019  -43.2149 Cl  0  0  0  0  0  0  0  0  0  0  0  0
  -14.8141   19.1195  -41.0957 C   0  0  0  0  0  0  0  0  0  0  0  0
  -16.0303   19.6869  -40.8429 F   0  0  0  0  0  0  0  0  0  0  0  0
  -13.4840   18.3942  -37.6009 N   0  0  0  0  0  0  0  0  0  0  0  0
  -12.9740   18.5363  -36.3710 C   0  0  0  0  0  0  0  0  0  0  0  0
  -13.6283   18.1385  -35.2924 N   0  0  0  0  0  0  0  0  0  0  0  0
  -14.8368   17.5774  -35.4412 C   0  0  0  0  0  0  0  0  0  0  0  0
  -15.5704   17.1436  -34.3829 C   0  0  0  0  0  0  0  0  0  0  0  0
  -16.8329   16.5564  -34.5257 C   0  0  0  0  0  0  0  0  0  0  0  0
  -17.5086   16.1430  -33.3800 O   0  0  0  0  0  0  0  0  0  0  0  0
  -16.8328   15.4341  -32.3639 C   0  0  0  0  0  0  0  0  0  0  0  0
  -20.0875   17.0217  -37.3547 C   0  0  0  0  0  0  0  0  0  0  0  0
  -21.4598   17.6701  -37.3267 C   0  0  0  0  0  0  0  0  0  0  0  0
  1  2  2  0
  2  3  1  0
  3  4  2  0
  3  5  1  0
  5  6  1  0
  6  7  1  0
  7  8  1  0
  8  9  1  0
  9 10  1  0
 10 11  2  0
 11 12  1  0
 12 13  2  0
 13 14  1  0
 14 15  1  0
 15 16  2  0
 16 17  1  0
 17 18  2  0
 18 19  1  0
 18 20  1  0
 20 21  1  0
 20 22  2  0
 22 23  1  0
 13 24  1  0
 24 25  2  0
 25 26  1  0
 26 27  2  0
 27 28  1  0
 28 29  2  0
 29 30  1  0
 30 31  1  0
  8 32  1  0
 32 33  1  0
 33  5  1  0
 29 10  1  0
 27 12  1  0
 22 15  1  0
M  END
$$$$
