
     RDKit          3D

 37 39  0  0  0  0  0  0  0  0999 V2000
  -25.7368   18.6667  -30.9469 C   0  0  0  0  0  0  0  0  0  0  0  0
  -24.7461   19.6144  -31.0637 O   0  0  0  0  0  0  0  0  0  0  0  0
  -23.8700   19.3839  -32.0973 C   0  0  0  0  0  0  0  0  0  0  0  0
  -22.8663   20.4725  -32.2031 C   0  0  2  0  0  0  0  0  0  0  0  0
  -23.4893   21.7973  -32.2717 N   0  0  0  0  0  0  0  0  0  0  0  0
  -22.7673   22.9906  -32.2633 C   0  0  0  0  0  0  0  0  0  0  0  0
  -21.5209   22.9298  -32.0926 O   0  0  0  0  0  0  0  0  0  0  0  0
  -23.3897   24.3086  -32.4448 C   0  0  0  0  0  0  0  0  0  0  0  0
  -23.5345   25.1705  -33.4598 C   0  0  0  0  0  0  0  0  0  0  0  0
  -24.1799   26.2802  -33.1940 N   0  0  0  0  0  0  0  0  0  0  0  0
  -24.6592   26.6613  -32.2161 C   0  0  0  0  0  0  0  0  0  0  0  0
  -25.4286   27.8067  -31.5782 C   0  0  0  0  0  0  0  0  0  0  0  0
  -24.2459   25.1955  -31.0640 S   0  0  0  0  0  0  0  0  0  0  0  0
  -21.8973   20.3119  -33.3274 C   0  0  0  0  0  0  0  0  0  0  0  0
  -21.8568   21.1429  -34.2641 O   0  0  0  0  0  0  0  0  0  0  0  0
  -20.9970   19.2244  -33.3748 N   0  0  0  0  0  0  0  0  0  0  0  0
  -20.0726   19.0691  -34.5074 C   0  0  1  0  0  0  0  0  0  0  0  0
  -18.9593   18.1173  -34.1100 C   0  0  0  0  0  0  0  0  0  0  0  0
  -18.5155   18.4491  -32.8417 O   0  0  0  0  0  0  0  0  0  0  0  0
  -17.4537   17.6289  -32.4365 C   0  0  0  0  0  0  0  0  0  0  0  0
  -20.8150   18.4996  -35.6388 C   0  0  0  0  0  0  0  0  0  0  0  0
  -20.4134   18.6980  -36.8233 O   0  0  0  0  0  0  0  0  0  0  0  0
  -21.9942   17.7078  -35.4819 N   0  0  0  0  0  0  0  0  0  0  0  0
  -22.7169   17.2459  -36.6646 C   0  0  1  0  0  0  0  0  0  0  0  0
  -23.6691   16.1001  -36.1993 C   0  0  0  0  0  0  0  0  0  0  0  0
  -22.9059   14.9146  -35.7576 C   0  0  0  0  0  0  0  0  0  0  0  0
  -22.5980   14.7009  -34.4118 C   0  0  0  0  0  0  0  0  0  0  0  0
  -21.8921   13.5850  -34.0135 C   0  0  0  0  0  0  0  0  0  0  0  0
  -21.4647   12.6331  -34.9462 C   0  0  0  0  0  0  0  0  0  0  0  0
  -21.7656   12.8385  -36.2755 C   0  0  0  0  0  0  0  0  0  0  0  0
  -22.4793   13.9719  -36.6610 C   0  0  0  0  0  0  0  0  0  0  0  0
  -23.4572   18.2473  -37.4160 C   0  0  0  0  0  0  0  0  0  0  0  0
  -24.7154   18.1369  -37.3491 O   0  0  0  0  0  0  0  0  0  0  0  0
  -23.0028   19.3581  -38.2306 C   0  0  1  0  0  0  0  0  0  0  0  0
  -21.8689   19.0663  -39.2070 C   0  0  0  0  0  0  0  0  0  0  0  0
  -23.6913   20.6010  -38.4266 C   0  0  0  0  0  0  0  0  0  0  0  0
  -22.6697   20.5493  -37.4327 O   0  0  0  0  0  0  0  0  0  0  0  0
  1  2  1  0
  2  3  1  0
  4  3  1  6
  4  5  1  0
  5  6  1  0
  6  7  2  0
  6  8  1  0
  8  9  2  0
  9 10  1  0
 10 11  2  0
 11 12  1  0
 11 13  1  0
  4 14  1  0
 14 15  2  0
 14 16  1  0
 16 17  1  0
 17 18  1  1
 18 19  1  0
 19 20  1  0
 17 21  1  0
 21 22  2  0
 21 23  1  0
 23 24  1  0
 24 25  1  1
 25 26  1  0
 26 27  2  0
 27 28  1  0
 28 29  2  0
 29 30  1  0
 30 31  2  0
 24 32  1  0
 32 33  2  0
 32 34  1  0
 34 35  1  6
 34 36  1  0
 36 37  1  0
 13  8  1  0
 31 26  1  0
 37 34  1  0
M  END
$$$$
