
     RDKit          3D

 18 20  0  0  0  0  0  0  0  0999 V2000
  -17.2694   43.0485  -19.4547 C   0  0  0  0  0  0  0  0  0  0  0  0
  -17.1929   41.8355  -20.2989 C   0  0  0  0  0  0  0  0  0  0  0  0
  -16.0569   41.4945  -21.0004 C   0  0  0  0  0  0  0  0  0  0  0  0
  -16.0509   40.3510  -21.7615 C   0  0  0  0  0  0  0  0  0  0  0  0
  -17.1612   39.5168  -21.8516 C   0  0  0  0  0  0  0  0  0  0  0  0
  -17.3986   38.3656  -22.5150 N   0  0  0  0  0  0  0  0  0  0  0  0
  -18.6617   37.9818  -22.2389 C   0  0  0  0  0  0  0  0  0  0  0  0
  -19.5338   36.5309  -22.8324 S   0  0  0  0  0  0  0  0  0  0  0  0
  -19.3568   36.4733  -24.6607 C   0  0  0  0  0  0  0  0  0  0  0  0
  -19.7421   37.7433  -25.2935 C   0  0  0  0  0  0  0  0  0  0  0  0
  -21.0656   38.1124  -25.3266 C   0  0  0  0  0  0  0  0  0  0  0  0
  -21.4653   39.3028  -25.8989 C   0  0  0  0  0  0  0  0  0  0  0  0
  -20.5078   40.1442  -26.4517 C   0  0  0  0  0  0  0  0  0  0  0  0
  -19.2059   39.7423  -26.3973 C   0  0  0  0  0  0  0  0  0  0  0  0
  -18.8236   38.5596  -25.8279 N   0  0  0  0  0  0  0  0  0  0  0  0
  -19.2032   38.8982  -21.4049 N   0  0  0  0  0  0  0  0  0  0  0  0
  -18.2904   39.8662  -21.1470 C   0  0  0  0  0  0  0  0  0  0  0  0
  -18.2915   41.0178  -20.3820 C   0  0  0  0  0  0  0  0  0  0  0  0
  1  2  1  0
  2  3  2  0
  3  4  1  0
  4  5  2  0
  5  6  1  0
  6  7  1  0
  7  8  1  0
  8  9  1  0
  9 10  1  0
 10 11  2  0
 11 12  1  0
 12 13  2  0
 13 14  1  0
 14 15  2  0
  7 16  2  0
 16 17  1  0
 17 18  2  0
 18  2  1  0
 17  5  1  0
 15 10  1  0
M  END
$$$$
