
     RDKit          3D

 46 53  0  0  0  0  0  0  0  0999 V2000
  -21.1053   21.3850  -29.7689 C   0  0  0  0  0  0  0  0  0  0  0  0
  -22.3037   20.6420  -29.6834 O   0  0  0  0  0  0  0  0  0  0  0  0
  -22.5113   19.5430  -30.5021 C   0  0  0  0  0  0  0  0  0  0  0  0
  -21.9322   19.5408  -31.7522 C   0  0  0  0  0  0  0  0  0  0  0  0
  -22.0815   18.4912  -32.6396 C   0  0  0  0  0  0  0  0  0  0  0  0
  -21.4959   18.4195  -33.9828 C   0  0  2  0  0  0  0  0  0  0  0  0
  -20.1064   17.8467  -33.9926 C   0  0  0  0  0  0  0  0  0  0  0  0
  -19.8480   16.7739  -33.1495 C   0  0  0  0  0  0  0  0  0  0  0  0
  -18.5941   16.1776  -33.0995 C   0  0  0  0  0  0  0  0  0  0  0  0
  -17.5991   16.6731  -33.9092 C   0  0  0  0  0  0  0  0  0  0  0  0
  -17.8704   17.7517  -34.7523 C   0  0  0  0  0  0  0  0  0  0  0  0
  -19.1069   18.3351  -34.7973 C   0  0  0  0  0  0  0  0  0  0  0  0
  -19.3732   19.4851  -35.6918 C   0  0  1  0  0  0  0  0  0  0  0  0
  -20.0397   19.0292  -36.8433 O   0  0  0  0  0  0  0  0  0  0  0  0
  -19.1882   18.9417  -37.9440 C   0  0  2  0  0  0  0  0  0  0  0  0
  -18.7591   20.1931  -38.3214 O   0  0  0  0  0  0  0  0  0  0  0  0
  -18.3214   20.1968  -39.6371 C   0  0  2  0  0  0  0  0  0  0  0  0
  -17.5278   21.4197  -39.9979 C   0  0  0  0  0  0  0  0  0  0  0  0
  -17.3461   21.4073  -41.3787 O   0  0  0  0  0  0  0  0  0  0  0  0
  -18.5584   21.4767  -42.0569 C   0  0  1  0  0  0  0  0  0  0  0  0
  -18.4346   21.7415  -43.4636 C   0  0  0  0  0  0  0  0  0  0  0  0
  -18.3381   22.8609  -44.2250 C   0  0  0  0  0  0  0  0  0  0  0  0
  -18.2302   22.8103  -45.5479 C   0  0  0  0  0  0  0  0  0  0  0  0
  -18.2198   21.5149  -46.1424 C   0  0  0  0  0  0  0  0  0  0  0  0
  -18.3671   20.4183  -44.7574 S   0  0  0  0  0  0  0  0  0  0  0  0
  -19.2310   20.2777  -41.8621 O   0  0  0  0  0  0  0  0  0  0  0  0
  -19.5592   20.1871  -40.5100 C   0  0  1  0  0  0  0  0  0  0  0  0
  -20.3517   18.9702  -40.1729 C   0  0  2  0  0  0  0  0  0  0  0  0
  -21.7077   19.3173  -39.9771 O   0  0  0  0  0  0  0  0  0  0  0  0
  -19.8133   18.1522  -39.0603 C   0  0  1  0  0  0  0  0  0  0  0  0
  -18.9494   17.1677  -39.5497 O   0  0  0  0  0  0  0  0  0  0  0  0
  -20.2999   20.3536  -34.8687 C   0  0  1  0  0  0  0  0  0  0  0  0
  -20.7272   21.6285  -35.5104 C   0  0  0  0  0  0  0  0  0  0  0  0
  -21.9020   21.9127  -34.7259 O   0  0  0  0  0  0  0  0  0  0  0  0
  -22.5049   20.6985  -34.3341 C   0  0  0  0  0  0  0  0  0  0  0  0
  -23.5843   20.6849  -33.6891 O   0  0  0  0  0  0  0  0  0  0  0  0
  -21.6315   19.6277  -34.8284 C   0  0  2  0  0  0  0  0  0  0  0  0
  -16.4804   15.8931  -33.6475 O   0  0  0  0  0  0  0  0  0  0  0  0
  -16.6493   15.2968  -32.3533 C   0  0  0  0  0  0  0  0  0  0  0  0
  -18.0721   15.1026  -32.3539 O   0  0  0  0  0  0  0  0  0  0  0  0
  -22.8667   17.4347  -32.1648 C   0  0  0  0  0  0  0  0  0  0  0  0
  -23.4518   17.4145  -30.9274 C   0  0  0  0  0  0  0  0  0  0  0  0
  -24.2259   16.3182  -30.5225 O   0  0  0  0  0  0  0  0  0  0  0  0
  -24.4803   15.2587  -31.4090 C   0  0  0  0  0  0  0  0  0  0  0  0
  -23.2755   18.4781  -30.0822 C   0  0  0  0  0  0  0  0  0  0  0  0
  -23.8643   18.4757  -28.8166 O   0  0  0  0  0  0  0  0  0  0  0  0
  1  2  1  0
  2  3  1  0
  3  4  2  0
  4  5  1  0
  6  5  1  1
  6  7  1  0
  7  8  2  0
  8  9  1  0
  9 10  2  0
 10 11  1  0
 11 12  2  0
 12 13  1  0
 13 14  1  6
 15 14  1  1
 15 16  1  0
 16 17  1  0
 17 18  1  1
 18 19  1  0
 19 20  1  0
 20 21  1  6
 21 22  2  0
 22 23  1  0
 23 24  2  0
 24 25  1  0
 20 26  1  0
 27 26  1  6
 27 28  1  0
 28 29  1  1
 28 30  1  0
 30 31  1  6
 13 32  1  0
 32 33  1  6
 33 34  1  0
 34 35  1  0
 35 36  2  0
 37 35  1  1
 10 38  1  0
 38 39  1  0
 39 40  1  0
  5 41  2  0
 41 42  1  0
 42 43  1  0
 43 44  1  0
 42 45  2  0
 45 46  1  0
 45  3  1  0
 37  6  1  0
 12  7  1  0
 30 15  1  0
 37 32  1  0
 40  9  1  0
 27 17  1  0
 25 21  1  0
M  END
$$$$
