
     RDKit          3D

 39 43  0  0  0  0  0  0  0  0999 V2000
  -13.7916   -7.0296  -33.8930 C   0  0  0  0  0  0  0  0  0  0  0  0
  -13.4905   -5.7239  -34.3159 O   0  0  0  0  0  0  0  0  0  0  0  0
  -14.3362   -4.9030  -35.0395 C   0  0  0  0  0  0  0  0  0  0  0  0
  -15.4531   -5.3713  -35.3748 O   0  0  0  0  0  0  0  0  0  0  0  0
  -13.9279   -3.5004  -35.4088 C   0  0  0  0  0  0  0  0  0  0  0  0
  -15.0141   -2.9904  -36.3438 C   0  0  2  0  0  0  0  0  0  0  0  0
  -15.7779   -4.1312  -36.6915 O   0  0  0  0  0  0  0  0  0  0  0  0
  -14.3332   -2.5114  -37.5825 C   0  0  0  0  0  0  0  0  0  0  0  0
  -15.2260   -2.1786  -38.7365 C   0  0  0  0  0  0  0  0  0  0  0  0
  -14.4970   -1.6964  -39.9625 C   0  0  0  0  0  0  0  0  0  0  0  0
  -15.5029   -1.4126  -41.0953 C   0  0  0  0  0  0  0  0  0  0  0  0
  -16.4080   -0.2731  -40.6756 C   0  0  0  0  0  0  0  0  0  0  0  0
  -16.3027   -2.6618  -41.3952 C   0  0  0  0  0  0  0  0  0  0  0  0
  -14.8122   -1.0443  -42.2466 O   0  0  0  0  0  0  0  0  0  0  0  0
  -15.8635   -1.9597  -35.7451 C   0  0  0  0  0  0  0  0  0  0  0  0
  -16.7296   -1.3941  -36.4928 O   0  0  0  0  0  0  0  0  0  0  0  0
  -15.8208   -1.5363  -34.4430 O   0  0  0  0  0  0  0  0  0  0  0  0
  -16.9550   -1.4279  -33.6268 C   0  0  2  0  0  0  0  0  0  0  0  0
  -18.0290   -0.6061  -34.1587 C   0  0  0  0  0  0  0  0  0  0  0  0
  -18.4244   -0.3602  -35.4772 O   0  0  0  0  0  0  0  0  0  0  0  0
  -19.7364   -0.5969  -35.9367 C   0  0  0  0  0  0  0  0  0  0  0  0
  -18.6710   -0.0479  -33.1456 C   0  0  0  0  0  0  0  0  0  0  0  0
  -18.0773   -0.4513  -31.8508 C   0  0  2  0  0  0  0  0  0  0  0  0
  -18.6575   -1.7206  -31.3007 C   0  0  0  0  0  0  0  0  0  0  0  0
  -19.1717   -1.3441  -29.9283 C   0  0  0  0  0  0  0  0  0  0  0  0
  -19.2704    0.1414  -30.0110 C   0  0  0  0  0  0  0  0  0  0  0  0
  -18.1143    0.5380  -30.8317 N   0  0  0  0  0  0  0  0  0  0  0  0
  -18.3735    1.8750  -31.2640 C   0  0  0  0  0  0  0  0  0  0  0  0
  -17.4734    2.4040  -32.3263 C   0  0  0  0  0  0  0  0  0  0  0  0
  -16.1413    1.7395  -32.3756 C   0  0  0  0  0  0  0  0  0  0  0  0
  -15.1076    2.6598  -32.4392 C   0  0  0  0  0  0  0  0  0  0  0  0
  -13.7770    2.3023  -32.4939 C   0  0  0  0  0  0  0  0  0  0  0  0
  -13.4400    0.9579  -32.4857 C   0  0  0  0  0  0  0  0  0  0  0  0
  -14.4712    0.0416  -32.4223 C   0  0  0  0  0  0  0  0  0  0  0  0
  -15.7992    0.4031  -32.3678 C   0  0  0  0  0  0  0  0  0  0  0  0
  -16.6485   -0.7883  -32.3053 C   0  0  2  0  0  0  0  0  0  0  0  0
  -12.0463    0.8958  -32.5485 O   0  0  0  0  0  0  0  0  0  0  0  0
  -11.4970    2.1641  -32.2485 C   0  0  0  0  0  0  0  0  0  0  0  0
  -12.5815    3.0179  -32.5611 O   0  0  0  0  0  0  0  0  0  0  0  0
  1  2  1  0
  2  3  1  0
  3  4  2  0
  3  5  1  0
  5  6  1  0
  6  7  1  6
  6  8  1  0
  8  9  1  0
  9 10  1  0
 10 11  1  0
 11 12  1  0
 11 13  1  0
 11 14  1  0
  6 15  1  0
 15 16  2  0
 15 17  1  0
 18 17  1  6
 18 19  1  0
 19 20  1  0
 20 21  1  0
 19 22  2  0
 22 23  1  0
 23 24  1  1
 24 25  1  0
 25 26  1  0
 26 27  1  0
 27 28  1  0
 28 29  1  0
 29 30  1  0
 30 31  2  0
 31 32  1  0
 32 33  2  0
 33 34  1  0
 34 35  2  0
 36 35  1  6
 33 37  1  0
 37 38  1  0
 38 39  1  0
 36 18  1  0
 27 23  1  0
 35 30  1  0
 36 23  1  0
 39 32  1  0
M  END
$$$$
