
     RDKit          3D

 17 19  0  0  0  0  0  0  0  0999 V2000
  -20.1151   18.2704  -36.1147 N   0  0  0  0  0  0  0  0  0  0  0  0
  -19.2343   17.6781  -35.1451 C   0  0  0  0  0  0  0  0  0  0  0  0
  -19.7451   17.1064  -34.0026 C   0  0  0  0  0  0  0  0  0  0  0  0
  -18.8694   16.5501  -33.0995 C   0  0  0  0  0  0  0  0  0  0  0  0
  -17.4854   16.5547  -33.3184 C   0  0  0  0  0  0  0  0  0  0  0  0
  -16.6154   15.9468  -32.3182 C   0  0  0  0  0  0  0  0  0  0  0  0
  -16.5790   16.3934  -31.0222 C   0  0  0  0  0  0  0  0  0  0  0  0
  -15.7474   15.8194  -30.0473 C   0  0  0  0  0  0  0  0  0  0  0  0
  -14.9623   14.7718  -30.4711 C   0  0  0  0  0  0  0  0  0  0  0  0
  -14.1182   14.1613  -29.5557 C   0  0  0  0  0  0  0  0  0  0  0  0
  -13.3066   13.1044  -29.9242 C   0  0  0  0  0  0  0  0  0  0  0  0
  -13.3268   12.6458  -31.2033 C   0  0  0  0  0  0  0  0  0  0  0  0
  -14.1666   13.2519  -32.1174 C   0  0  0  0  0  0  0  0  0  0  0  0
  -14.9916   14.3161  -31.7698 C   0  0  0  0  0  0  0  0  0  0  0  0
  -15.8068   14.9057  -32.6538 N   0  0  0  0  0  0  0  0  0  0  0  0
  -17.0403   17.1340  -34.4650 C   0  0  0  0  0  0  0  0  0  0  0  0
  -17.9017   17.7061  -35.3998 C   0  0  0  0  0  0  0  0  0  0  0  0
  1  2  1  0
  2  3  2  0
  3  4  1  0
  4  5  2  0
  5  6  1  0
  6  7  2  0
  7  8  1  0
  8  9  2  0
  9 10  1  0
 10 11  2  0
 11 12  1  0
 12 13  2  0
 13 14  1  0
 14 15  2  0
  5 16  1  0
 16 17  2  0
 17  2  1  0
 15  6  1  0
 14  9  1  0
M  END
$$$$
