
     RDKit          3D

 26 29  0  0  0  0  0  0  0  0999 V2000
    7.7648    7.3332  -39.6500 N   0  0  0  0  0  0  0  0  0  0  0  0
    7.0584    7.9819  -38.5943 C   0  0  0  0  0  0  0  0  0  0  0  0
    6.3130    7.2174  -37.7652 N   0  0  0  0  0  0  0  0  0  0  0  0
    5.6390    7.8236  -36.7592 C   0  0  0  0  0  0  0  0  0  0  0  0
    4.8591    7.0138  -35.8927 N   0  0  0  0  0  0  0  0  0  0  0  0
    5.6954    9.1868  -36.5642 C   0  0  0  0  0  0  0  0  0  0  0  0
    5.0251    9.7851  -35.5644 N   0  0  0  0  0  0  0  0  0  0  0  0
    5.0634   11.1134  -35.3520 C   0  0  0  0  0  0  0  0  0  0  0  0
    4.3441   11.7838  -34.2738 C   0  0  0  0  0  0  0  0  0  0  0  0
    2.9597   11.7612  -34.2181 C   0  0  0  0  0  0  0  0  0  0  0  0
    2.3481   12.4159  -33.1700 C   0  0  0  0  0  0  0  0  0  0  0  0
    3.0633   13.0809  -32.1928 C   0  0  0  0  0  0  0  0  0  0  0  0
    4.4314   13.0990  -32.2543 C   0  0  0  0  0  0  0  0  0  0  0  0
    5.1831   13.7563  -31.2920 O   0  0  0  0  0  0  0  0  0  0  0  0
    5.0539   12.4553  -33.2863 C   0  0  0  0  0  0  0  0  0  0  0  0
    5.8417   11.8559  -36.2286 C   0  0  0  0  0  0  0  0  0  0  0  0
    5.8944   13.2908  -36.0114 C   0  0  0  0  0  0  0  0  0  0  0  0
    4.7874   14.0362  -36.3459 C   0  0  0  0  0  0  0  0  0  0  0  0
    4.8086   15.4219  -36.1479 C   0  0  0  0  0  0  0  0  0  0  0  0
    5.9340   16.0283  -35.6212 C   0  0  0  0  0  0  0  0  0  0  0  0
    7.0421   15.2777  -35.2869 C   0  0  0  0  0  0  0  0  0  0  0  0
    8.1507   15.9241  -34.7614 O   0  0  0  0  0  0  0  0  0  0  0  0
    7.0124   13.9004  -35.4870 C   0  0  0  0  0  0  0  0  0  0  0  0
    6.5189   11.2553  -37.2381 N   0  0  0  0  0  0  0  0  0  0  0  0
    6.4685    9.9271  -37.4345 C   0  0  0  0  0  0  0  0  0  0  0  0
    7.1461    9.3287  -38.4436 N   0  0  0  0  0  0  0  0  0  0  0  0
  1  2  1  0
  2  3  2  0
  3  4  1  0
  4  5  1  0
  4  6  2  0
  6  7  1  0
  7  8  2  0
  8  9  1  0
  9 10  2  0
 10 11  1  0
 11 12  2  0
 12 13  1  0
 13 14  1  0
 13 15  2  0
  8 16  1  0
 16 17  1  0
 17 18  2  0
 18 19  1  0
 19 20  2  0
 20 21  1  0
 21 22  1  0
 21 23  2  0
 16 24  2  0
 24 25  1  0
 25 26  2  0
 26  2  1  0
 25  6  1  0
 15  9  1  0
 23 17  1  0
M  END
$$$$
