
     RDKit          3D

 29 32  0  0  0  0  0  0  0  0999 V2000
  -15.1031   33.6685  -19.7641 C   0  0  0  0  0  0  0  0  0  0  0  0
  -15.6618   33.1156  -21.0399 C   0  0  0  0  0  0  0  0  0  0  0  0
  -16.6279   34.0433  -21.7012 C   0  0  0  0  0  0  0  0  0  0  0  0
  -16.6523   35.3821  -21.3850 C   0  0  0  0  0  0  0  0  0  0  0  0
  -17.5381   36.2775  -21.9772 C   0  0  0  0  0  0  0  0  0  0  0  0
  -18.4078   35.7962  -22.9033 C   0  0  0  0  0  0  0  0  0  0  0  0
  -18.3880   34.4636  -23.2221 C   0  0  0  0  0  0  0  0  0  0  0  0
  -17.5126   33.5598  -22.6413 C   0  0  0  0  0  0  0  0  0  0  0  0
  -17.5206   32.1212  -23.0118 C   0  0  0  0  0  0  0  0  0  0  0  0
  -18.6170   31.3420  -22.3634 C   0  0  0  0  0  0  0  0  0  0  0  0
  -19.2493   36.8944  -23.4038 C   0  0  0  0  0  0  0  0  0  0  0  0
  -18.6453   38.1834  -22.8436 C   0  0  0  0  0  0  0  0  0  0  0  0
  -19.7299   38.9606  -22.3603 N   0  0  0  0  0  0  0  0  0  0  0  0
  -19.4407   40.1939  -21.7231 C   0  0  0  0  0  0  0  0  0  0  0  0
  -18.8112   41.2609  -22.5577 C   0  0  2  0  0  0  0  0  0  0  0  0
  -17.9953   40.7417  -23.5744 O   0  0  0  0  0  0  0  0  0  0  0  0
  -18.1707   42.3529  -21.8004 C   0  0  0  0  0  0  0  0  0  0  0  0
  -16.7834   42.4841  -21.7306 C   0  0  0  0  0  0  0  0  0  0  0  0
  -16.1610   43.4886  -21.0273 C   0  0  0  0  0  0  0  0  0  0  0  0
  -16.9097   44.4201  -20.3523 C   0  0  0  0  0  0  0  0  0  0  0  0
  -16.2864   45.4502  -19.6311 O   0  0  0  0  0  0  0  0  0  0  0  0
  -18.2829   44.3146  -20.4032 C   0  0  0  0  0  0  0  0  0  0  0  0
  -18.9970   45.2226  -19.7418 N   0  0  0  0  0  0  0  0  0  0  0  0
  -20.3270   45.2200  -19.7166 C   0  0  0  0  0  0  0  0  0  0  0  0
  -20.9830   46.1061  -19.0722 O   0  0  0  0  0  0  0  0  0  0  0  0
  -21.0006   44.2422  -20.3994 C   0  0  0  0  0  0  0  0  0  0  0  0
  -20.2781   43.2755  -21.1028 C   0  0  0  0  0  0  0  0  0  0  0  0
  -18.8975   43.2999  -21.1139 C   0  0  0  0  0  0  0  0  0  0  0  0
  -17.7009   37.7238  -21.7589 C   0  0  0  0  0  0  0  0  0  0  0  0
  1  2  1  0
  2  3  1  0
  3  4  2  0
  4  5  1  0
  5  6  2  0
  6  7  1  0
  7  8  2  0
  8  9  1  0
  9 10  1  0
  6 11  1  0
 11 12  1  0
 12 13  1  0
 13 14  1  0
 14 15  1  0
 15 16  1  1
 15 17  1  0
 17 18  2  0
 18 19  1  0
 19 20  2  0
 20 21  1  0
 20 22  1  0
 22 23  1  0
 23 24  1  0
 24 25  2  0
 24 26  1  0
 26 27  2  0
 27 28  1  0
 12 29  1  0
  8  3  1  0
 28 17  1  0
 29  5  1  0
 28 22  2  0
M  END
$$$$
