
     RDKit          3D

 10  9  0  0  0  0  0  0  0  0999 V2000
  -37.6004   13.4676  -22.4316 N   0  0  0  0  0  0  0  0  0  0  0  0
  -36.9749   14.6733  -23.0004 C   0  0  0  0  0  0  0  0  0  0  0  0
  -36.2735   14.2401  -24.2575 C   0  0  0  0  0  0  0  0  0  0  0  0
  -35.4978   15.3190  -24.9385 C   0  0  0  0  0  0  0  0  0  0  0  0
  -34.1619   15.5736  -24.3391 C   0  0  0  0  0  0  0  0  0  0  0  0
  -33.0633   15.2931  -25.2282 N   0  0  0  0  0  0  0  0  0  0  0  0
  -32.9356   16.2285  -26.3081 C   0  0  0  0  0  0  0  0  0  0  0  0
  -31.5492   16.7363  -26.4807 C   0  0  0  0  0  0  0  0  0  0  0  0
  -31.2660   17.2786  -27.8527 C   0  0  0  0  0  0  0  0  0  0  0  0
  -29.9215   17.7996  -27.9684 N   0  0  0  0  0  0  0  0  0  0  0  0
  1  2  1  0
  2  3  1  0
  3  4  1  0
  4  5  1  0
  5  6  1  0
  6  7  1  0
  7  8  1  0
  8  9  1  0
  9 10  1  0
M  END
$$$$
