
     RDKit          3D

 33 34  0  0  0  0  0  0  0  0999 V2000
  -37.8049   11.2761  -23.0794 O   0  0  0  0  0  0  0  0  0  0  0  0
  -36.6255   10.7808  -23.8367 S   0  0  0  0  0  6  0  0  0  0  0  0
  -35.7750    9.8923  -22.9438 O   0  0  0  0  0  0  0  0  0  0  0  0
  -37.0528    9.8692  -25.1648 O   0  0  0  0  0  1  0  0  0  0  0  0
  -35.5940   12.1384  -24.2791 C   0  0  0  0  0  0  0  0  0  0  0  0
  -36.1420   13.3595  -24.6127 C   0  0  0  0  0  0  0  0  0  0  0  0
  -35.3182   14.4183  -24.9586 C   0  0  0  0  0  0  0  0  0  0  0  0
  -33.9425   14.3067  -24.9859 C   0  0  0  0  0  0  0  0  0  0  0  0
  -33.1161   15.3575  -25.3295 C   0  0  0  0  0  0  0  0  0  0  0  0
  -31.7372   15.2490  -25.3579 C   0  0  0  0  0  0  0  0  0  0  0  0
  -30.9820   16.3721  -25.7196 N   0  0  0  0  0  0  0  0  0  0  0  0
  -31.4723   17.2475  -26.4612 N   0  0  0  0  0  0  0  0  0  0  0  0
  -30.7746   18.4218  -26.8786 C   0  0  0  0  0  0  0  0  0  0  0  0
  -30.6508   18.7420  -28.2159 C   0  0  0  0  0  0  0  0  0  0  0  0
  -29.9774   19.8759  -28.6227 C   0  0  0  0  0  0  0  0  0  0  0  0
  -29.8196   20.2832  -30.3166 S   0  0  0  0  0  6  0  0  0  0  0  0
  -30.4779   19.2019  -31.1230 O   0  0  0  0  0  0  0  0  0  0  0  0
  -30.5033   21.5852  -30.6126 O   0  0  0  0  0  0  0  0  0  0  0  0
  -28.1862   20.3402  -30.7011 O   0  0  0  0  0  1  0  0  0  0  0  0
  -29.3975   20.7398  -27.7017 C   0  0  0  0  0  0  0  0  0  0  0  0
  -28.7274   21.8701  -28.1287 C   0  0  0  0  0  0  0  0  0  0  0  0
  -28.1633   22.7066  -27.1880 C   0  0  0  0  0  0  0  0  0  0  0  0
  -28.3008   22.3651  -25.8623 C   0  0  0  0  0  0  0  0  0  0  0  0
  -28.9526   21.2658  -25.4492 N   0  0  0  0  0  0  0  0  0  0  0  0
  -29.5144   20.4310  -26.3648 C   0  0  0  0  0  0  0  0  0  0  0  0
  -30.1939   19.2886  -25.9748 C   0  0  0  0  0  0  0  0  0  0  0  0
  -30.3087   18.9822  -24.6276 O   0  0  0  0  0  0  0  0  0  0  0  0
  -31.1973   14.0252  -25.0231 C   0  0  0  0  0  0  0  0  0  0  0  0
  -32.0250   12.9762  -24.6800 C   0  0  0  0  0  0  0  0  0  0  0  0
  -33.3974   13.0841  -24.6517 C   0  0  0  0  0  0  0  0  0  0  0  0
  -34.2218   12.0252  -24.3058 C   0  0  0  0  0  0  0  0  0  0  0  0
  -31.8590   16.8073  -26.1115 Na  0  0  0  0  0 15  0  0  0  0  0  0
  -31.8590   16.8073  -26.1115 Na  0  0  0  0  0 15  0  0  0  0  0  0
  1  2  2  0
  2  3  2  0
  2  4  1  0
  2  5  1  0
  5  6  2  0
  6  7  1  0
  7  8  2  0
  8  9  1  0
  9 10  2  0
 10 11  1  0
 11 12  2  3
 12 13  1  0
 13 14  2  0
 14 15  1  0
 15 16  1  0
 16 17  2  0
 16 18  2  0
 16 19  1  0
 15 20  2  0
 20 21  1  0
 21 22  2  0
 22 23  1  0
 23 24  2  0
 24 25  1  0
 25 26  2  0
 26 27  1  0
 10 28  1  0
 28 29  2  0
 29 30  1  0
 30 31  2  0
 31  5  1  0
 30  8  1  0
 26 13  1  0
 25 20  1  0
M  CHG  4   4  -1  19  -1  32   1  33   1
M  END
$$$$
