
     RDKit          3D

 24 26  0  0  0  0  0  0  0  0999 V2000
  -13.7094   43.0516  -21.2038 C   0  0  0  0  0  0  0  0  0  0  0  0
  -13.9069   43.1397  -19.7097 C   0  0  2  0  0  0  0  0  0  0  0  0
  -15.2901   43.5486  -19.3226 C   0  0  0  0  0  0  0  0  0  0  0  0
  -16.3373   42.6316  -19.8068 C   0  0  0  0  0  0  0  0  0  0  0  0
  -16.6656   41.4742  -19.2142 N   0  0  0  0  0  0  0  0  0  0  0  0
  -17.6290   40.6872  -19.7082 C   0  0  0  0  0  0  0  0  0  0  0  0
  -17.9669   39.5845  -19.1740 O   0  0  0  0  0  0  0  0  0  0  0  0
  -18.3134   41.0467  -20.8452 C   0  0  0  0  0  0  0  0  0  0  0  0
  -19.3215   40.5078  -21.6057 C   0  0  0  0  0  0  0  0  0  0  0  0
  -19.5521   41.3597  -22.6142 N   0  0  0  0  0  0  0  0  0  0  0  0
  -18.7615   42.4006  -22.5469 N   0  0  0  0  0  0  0  0  0  0  0  0
  -18.6735   43.5289  -23.4058 C   0  0  0  0  0  0  0  0  0  0  0  0
  -18.1667   43.4422  -24.6850 C   0  0  0  0  0  0  0  0  0  0  0  0
  -18.0943   44.5545  -25.4941 C   0  0  0  0  0  0  0  0  0  0  0  0
  -18.5187   45.7984  -25.0754 C   0  0  0  0  0  0  0  0  0  0  0  0
  -19.0228   45.8681  -23.7936 C   0  0  0  0  0  0  0  0  0  0  0  0
  -19.1033   44.7668  -22.9694 C   0  0  0  0  0  0  0  0  0  0  0  0
  -19.7622   44.9320  -21.3353 Cl  0  0  0  0  0  0  0  0  0  0  0  0
  -17.9752   42.2443  -21.4604 C   0  0  0  0  0  0  0  0  0  0  0  0
  -17.0065   42.9830  -20.9185 N   0  0  0  0  0  0  0  0  0  0  0  0
  -12.9564   44.2226  -19.2014 C   0  0  0  0  0  0  0  0  0  0  0  0
  -13.2107   45.3570  -19.9368 F   0  0  0  0  0  0  0  0  0  0  0  0
  -13.0832   44.4159  -17.8512 F   0  0  0  0  0  0  0  0  0  0  0  0
  -11.6780   43.8014  -19.5582 F   0  0  0  0  0  0  0  0  0  0  0  0
  2  1  1  6
  2  3  1  0
  3  4  1  0
  4  5  2  0
  5  6  1  0
  6  7  2  0
  6  8  1  0
  8  9  1  0
  9 10  2  0
 10 11  1  0
 11 12  1  0
 12 13  2  0
 13 14  1  0
 14 15  2  0
 15 16  1  0
 16 17  2  0
 17 18  1  0
 11 19  1  0
 19 20  1  0
  2 21  1  0
 21 22  1  0
 21 23  1  0
 21 24  1  0
 20  4  1  0
 19  8  2  0
 17 12  1  0
M  END
$$$$
