
     RDKit          3D

 32 34  0  0  0  0  0  0  0  0999 V2000
  -12.9361   44.8544  -24.3929 C   0  0  0  0  0  0  0  0  0  0  0  0
  -14.0187   44.6862  -23.3403 C   0  0  0  0  0  0  0  0  0  0  0  0
  -13.6434   43.5717  -22.3938 C   0  0  0  0  0  0  0  0  0  0  0  0
  -14.7319   43.4180  -21.3438 C   0  0  0  0  0  0  0  0  0  0  0  0
  -15.6933   42.3637  -21.6979 C   0  0  0  0  0  0  0  0  0  0  0  0
  -15.5075   41.8115  -22.8137 O   0  0  0  0  0  0  0  0  0  0  0  0
  -16.7727   41.9502  -20.9081 N   0  0  0  0  0  0  0  0  0  0  0  0
  -16.9837   42.6827  -19.6479 C   0  0  0  0  0  0  0  0  0  0  0  0
  -17.6425   43.9672  -19.7950 C   0  0  0  0  0  0  0  0  0  0  0  0
  -16.9431   45.1148  -19.4918 C   0  0  0  0  0  0  0  0  0  0  0  0
  -17.5167   46.3836  -19.6159 C   0  0  0  0  0  0  0  0  0  0  0  0
  -18.8113   46.5370  -20.0485 C   0  0  0  0  0  0  0  0  0  0  0  0
  -19.4190   47.8609  -20.1875 C   0  0  0  0  0  0  0  0  0  0  0  0
  -18.8021   48.8557  -20.9497 C   0  0  0  0  0  0  0  0  0  0  0  0
  -19.3816   50.0838  -21.0923 C   0  0  0  0  0  0  0  0  0  0  0  0
  -20.5873   50.3205  -20.4684 C   0  0  0  0  0  0  0  0  0  0  0  0
  -21.2039   49.3573  -19.7185 C   0  0  0  0  0  0  0  0  0  0  0  0
  -20.6207   48.0978  -19.5652 C   0  0  0  0  0  0  0  0  0  0  0  0
  -21.2842   47.0924  -18.7534 C   0  0  0  0  0  0  0  0  0  0  0  0
  -22.5660   46.7263  -18.7108 N   0  0  0  0  0  0  0  0  0  0  0  0
  -22.7270   45.7691  -17.8275 N   0  0  0  0  0  0  0  0  0  0  0  0
  -21.5670   45.4853  -17.2732 N   0  0  0  0  0  0  0  0  0  0  0  0
  -20.6778   46.2991  -17.8423 N   0  0  0  0  0  0  0  0  0  0  0  0
  -19.5013   45.3843  -20.3483 C   0  0  0  0  0  0  0  0  0  0  0  0
  -18.9307   44.1081  -20.2257 C   0  0  0  0  0  0  0  0  0  0  0  0
  -17.7226   40.9213  -21.2200 C   0  0  2  0  0  0  0  0  0  0  0  0
  -18.6957   40.6361  -20.1532 C   0  0  0  0  0  0  0  0  0  0  0  0
  -18.3497   40.3090  -18.9996 O   0  0  0  0  0  0  0  0  0  0  0  0
  -20.0431   40.7321  -20.4323 O   0  0  0  0  0  0  0  0  0  0  0  0
  -17.1620   39.6148  -21.6891 C   0  0  0  0  0  0  0  0  0  0  0  0
  -18.1032   38.5438  -22.0712 C   0  0  0  0  0  0  0  0  0  0  0  0
  -16.1129   39.0660  -20.7380 C   0  0  0  0  0  0  0  0  0  0  0  0
  1  2  1  0
  2  3  1  0
  3  4  1  0
  4  5  1  0
  5  6  2  0
  5  7  1  0
  7  8  1  0
  8  9  1  0
  9 10  2  0
 10 11  1  0
 11 12  2  0
 12 13  1  0
 13 14  2  0
 14 15  1  0
 15 16  2  0
 16 17  1  0
 17 18  2  0
 18 19  1  0
 19 20  1  0
 20 21  2  0
 21 22  1  0
 22 23  1  0
 12 24  1  0
 24 25  2  0
  7 26  1  0
 26 27  1  0
 27 28  2  0
 27 29  1  0
 26 30  1  1
 30 31  1  0
 30 32  1  0
 25  9  1  0
 18 13  1  0
 23 19  2  0
M  END
$$$$
