
     RDKit          3D

 27 29  0  0  0  0  0  0  0  0999 V2000
  -21.8561   24.8772  -39.9153 C   0  0  0  0  0  0  0  0  0  0  0  0
  -21.8887   23.4364  -39.5743 C   0  0  2  0  0  0  0  0  0  0  0  0
  -20.7276   22.9637  -38.7563 C   0  0  0  0  0  0  0  0  0  0  0  0
  -19.4713   22.8985  -39.5502 C   0  0  0  0  0  0  0  0  0  0  0  0
  -19.5791   22.1963  -40.8569 C   0  0  1  0  0  0  0  0  0  0  0  0
  -20.7621   22.7320  -41.6614 C   0  0  1  0  0  0  0  0  0  0  0  0
  -20.9083   22.0334  -42.9739 C   0  0  0  0  0  0  0  0  0  0  0  0
  -19.5687   22.0396  -43.6563 C   0  0  0  0  0  0  0  0  0  0  0  0
  -19.4167   22.4546  -44.7814 O   0  0  0  0  0  0  0  0  0  0  0  0
  -18.4312   21.5076  -42.8773 C   0  0  1  0  0  0  0  0  0  0  0  0
  -17.1640   21.4150  -43.6652 C   0  0  0  0  0  0  0  0  0  0  0  0
  -16.1323   20.8027  -42.7545 C   0  0  0  0  0  0  0  0  0  0  0  0
  -15.4842   19.7396  -43.1141 N   0  0  0  0  0  0  0  0  0  0  0  0
  -14.5533   19.2172  -42.2511 O   0  0  0  0  0  0  0  0  0  0  0  0
  -13.1701   19.1735  -42.6105 C   0  0  0  0  0  0  0  0  0  0  0  0
  -12.3565   18.5488  -41.4826 C   0  0  0  0  0  0  0  0  0  0  0  0
  -12.8005   17.1982  -41.2090 N   0  0  0  0  0  0  0  0  0  0  0  0
  -15.9225   21.4863  -41.4599 C   0  0  0  0  0  0  0  0  0  0  0  0
  -17.2026   21.7408  -40.7209 C   0  0  0  0  0  0  0  0  0  0  0  0
  -18.2853   22.3273  -41.6172 C   0  0  2  0  0  0  0  0  0  0  0  0
  -17.9026   23.7466  -41.9067 C   0  0  0  0  0  0  0  0  0  0  0  0
  -21.9525   22.5297  -40.8070 C   0  0  2  0  0  0  0  0  0  0  0  0
  -23.2595   22.9127  -41.3788 C   0  0  0  0  0  0  0  0  0  0  0  0
  -24.1472   23.0317  -40.1572 C   0  0  0  0  0  0  0  0  0  0  0  0
  -23.2109   23.1121  -38.9838 C   0  0  0  0  0  0  0  0  0  0  0  0
  -23.5113   22.9413  -37.8159 O   0  0  0  0  0  0  0  0  0  0  0  0
  -18.1215   21.5311  -41.4508 Cl  0  0  0  0  0  0  0  0  0  0  0  0
  2  1  1  6
  2  3  1  0
  3  4  1  0
  5  4  1  1
  5  6  1  0
  6  7  1  6
  7  8  1  0
  8  9  2  0
  8 10  1  0
 10 11  1  6
 11 12  1  0
 12 13  2  0
 13 14  1  0
 14 15  1  0
 15 16  1  0
 16 17  1  0
 12 18  1  0
 18 19  1  0
 19 20  1  0
 20 21  1  6
  6 22  1  0
 22 23  1  6
 23 24  1  0
 24 25  1  0
 25 26  2  0
 22  2  1  0
 25  2  1  0
 20  5  1  0
 20 10  1  0
M  END
$$$$
