
     RDKit          3D

 27 30  0  0  0  0  0  0  0  0999 V2000
  -16.5060   37.1351  -21.5881 O   0  0  0  0  0  0  0  0  0  0  0  0
  -17.6220   36.3569  -21.8294 C   0  0  0  0  0  0  0  0  0  0  0  0
  -17.7288   35.1646  -21.1484 C   0  0  0  0  0  0  0  0  0  0  0  0
  -18.8112   34.3392  -21.3428 C   0  0  0  0  0  0  0  0  0  0  0  0
  -19.7812   34.7395  -22.2356 C   0  0  0  0  0  0  0  0  0  0  0  0
  -19.6581   35.9365  -22.9083 C   0  0  0  0  0  0  0  0  0  0  0  0
  -18.5652   36.7945  -22.7269 C   0  0  0  0  0  0  0  0  0  0  0  0
  -18.4063   38.0783  -23.3964 C   0  0  0  0  0  0  0  0  0  0  0  0
  -17.8712   39.1900  -22.6080 C   0  0  0  0  0  0  0  0  0  0  0  0
  -16.7878   39.9169  -23.1165 C   0  0  0  0  0  0  0  0  0  0  0  0
  -16.2109   40.9601  -22.4847 C   0  0  0  0  0  0  0  0  0  0  0  0
  -16.6947   41.3612  -21.2595 C   0  0  0  0  0  0  0  0  0  0  0  0
  -16.0817   42.5165  -20.5238 C   0  0  0  0  0  0  0  0  0  0  0  0
  -16.9005   42.8505  -19.4753 F   0  0  0  0  0  0  0  0  0  0  0  0
  -14.8405   42.1841  -20.0225 F   0  0  0  0  0  0  0  0  0  0  0  0
  -15.9219   43.5450  -21.4224 F   0  0  0  0  0  0  0  0  0  0  0  0
  -17.7607   40.6580  -20.7431 C   0  0  0  0  0  0  0  0  0  0  0  0
  -18.3487   39.5932  -21.3891 C   0  0  0  0  0  0  0  0  0  0  0  0
  -19.3946   38.4747  -24.3372 N   0  0  0  0  0  0  0  0  0  0  0  0
  -20.6253   38.8788  -23.6086 C   0  0  0  0  0  0  0  0  0  0  0  0
  -21.7587   38.9490  -24.5998 C   0  0  0  0  0  0  0  0  0  0  0  0
  -21.3357   39.4365  -25.8331 O   0  0  0  0  0  0  0  0  0  0  0  0
  -20.2677   40.3155  -25.7089 C   0  0  0  0  0  0  0  0  0  0  0  0
  -19.0109   39.6397  -25.1533 C   0  0  0  0  0  0  0  0  0  0  0  0
  -20.7587   33.7265  -22.2433 O   0  0  0  0  0  0  0  0  0  0  0  0
  -20.5687   32.8796  -21.1316 C   0  0  0  0  0  0  0  0  0  0  0  0
  -19.1874   33.1136  -20.8187 O   0  0  0  0  0  0  0  0  0  0  0  0
  1  2  1  0
  2  3  2  0
  3  4  1  0
  4  5  2  0
  5  6  1  0
  6  7  2  0
  7  8  1  0
  8  9  1  0
  9 10  2  0
 10 11  1  0
 11 12  2  0
 12 13  1  0
 13 14  1  0
 13 15  1  0
 13 16  1  0
 12 17  1  0
 17 18  2  0
  8 19  1  0
 19 20  1  0
 20 21  1  0
 21 22  1  0
 22 23  1  0
 23 24  1  0
  5 25  1  0
 25 26  1  0
 26 27  1  0
  7  2  1  0
 18  9  1  0
 24 19  1  0
 27  4  1  0
M  END
$$$$
