
     RDKit          3D

 36 40  0  0  0  0  0  0  0  0999 V2000
  -18.6909   40.1267  -25.2461 O   0  0  0  0  0  0  0  0  0  0  0  0
  -18.3066   40.5069  -24.1089 C   0  0  0  0  0  0  0  0  0  0  0  0
  -18.1083   41.8917  -23.9359 N   0  0  0  0  0  0  0  0  0  0  0  0
  -17.9005   42.7497  -25.0751 C   0  0  0  0  0  0  0  0  0  0  0  0
  -18.7790   43.9763  -24.9493 C   0  0  0  0  0  0  0  0  0  0  0  0
  -18.3838   44.7326  -23.6974 C   0  0  0  0  0  0  0  0  0  0  0  0
  -18.7309   44.6545  -22.4993 N   0  0  0  0  0  0  0  0  0  0  0  0
  -18.2641   45.4119  -21.5544 C   0  0  0  0  0  0  0  0  0  0  0  0
  -18.7057   45.2870  -20.1288 C   0  0  0  0  0  0  0  0  0  0  0  0
  -19.6262   44.3497  -19.7559 C   0  0  0  0  0  0  0  0  0  0  0  0
  -20.0466   44.2191  -18.4395 C   0  0  0  0  0  0  0  0  0  0  0  0
  -19.5182   45.0574  -17.4964 C   0  0  0  0  0  0  0  0  0  0  0  0
  -18.5906   46.0138  -17.8266 C   0  0  0  0  0  0  0  0  0  0  0  0
  -18.2011   46.1092  -19.1448 C   0  0  0  0  0  0  0  0  0  0  0  0
  -17.3303   46.3610  -21.8837 C   0  0  0  0  0  0  0  0  0  0  0  0
  -17.2116   46.0319  -23.6882 S   0  0  0  0  0  0  0  0  0  0  0  0
  -18.6850   44.8657  -26.1465 C   0  0  0  0  0  0  0  0  0  0  0  0
  -19.4561   46.1432  -25.8472 C   0  0  0  0  0  0  0  0  0  0  0  0
  -20.6039   45.8944  -25.1311 O   0  0  0  0  0  0  0  0  0  0  0  0
  -21.0969   44.6231  -25.3129 C   0  0  0  0  0  0  0  0  0  0  0  0
  -20.2015   43.5433  -24.7439 C   0  0  0  0  0  0  0  0  0  0  0  0
  -18.0836   39.5638  -23.0433 C   0  0  0  0  0  0  0  0  0  0  0  0
  -17.5104   40.0268  -21.8625 C   0  0  0  0  0  0  0  0  0  0  0  0
  -17.2941   39.1502  -20.8411 C   0  0  0  0  0  0  0  0  0  0  0  0
  -17.6278   37.8161  -20.9448 C   0  0  0  0  0  0  0  0  0  0  0  0
  -18.2023   37.3223  -22.1116 C   0  0  0  0  0  0  0  0  0  0  0  0
  -18.5611   35.9212  -22.2333 C   0  0  0  0  0  0  0  0  0  0  0  0
  -18.8367   35.2445  -23.3575 N   0  0  0  0  0  0  0  0  0  0  0  0
  -19.1138   34.0067  -23.0460 O   0  0  0  0  0  0  0  0  0  0  0  0
  -19.0339   33.8285  -21.7526 C   0  0  0  0  0  0  0  0  0  0  0  0
  -19.2792   32.5605  -21.0331 C   0  0  0  0  0  0  0  0  0  0  0  0
  -20.6114   32.2436  -20.9287 F   0  0  0  0  0  0  0  0  0  0  0  0
  -18.7908   32.6434  -19.7262 F   0  0  0  0  0  0  0  0  0  0  0  0
  -18.6465   31.5426  -21.7239 F   0  0  0  0  0  0  0  0  0  0  0  0
  -18.6888   35.0208  -21.2378 N   0  0  0  0  0  0  0  0  0  0  0  0
  -18.4085   38.2327  -23.1265 C   0  0  0  0  0  0  0  0  0  0  0  0
  1  2  2  0
  2  3  1  0
  3  4  1  0
  4  5  1  0
  5  6  1  0
  6  7  2  0
  7  8  1  0
  8  9  1  0
  9 10  2  0
 10 11  1  0
 11 12  2  0
 12 13  1  0
 13 14  2  0
  8 15  2  0
 15 16  1  0
  5 17  1  0
 17 18  1  0
 18 19  1  0
 19 20  1  0
 20 21  1  0
  2 22  1  0
 22 23  2  0
 23 24  1  0
 24 25  2  0
 25 26  1  0
 26 27  1  0
 27 28  2  0
 28 29  1  0
 29 30  1  0
 30 31  1  0
 31 32  1  0
 31 33  1  0
 31 34  1  0
 30 35  2  0
 26 36  2  0
 21  5  1  0
 36 22  1  0
 16  6  1  0
 35 27  1  0
 14  9  1  0
M  END
$$$$
