
     RDKit          3D

 33 35  0  0  0  0  0  0  0  0999 V2000
  -20.3622   21.3817  -46.4026 C   0  0  0  0  0  0  0  0  0  0  0  0
  -19.2147   21.1428  -45.4810 C   0  0  0  0  0  0  0  0  0  0  0  0
  -19.6733   20.8187  -44.2017 O   0  0  0  0  0  0  0  0  0  0  0  0
  -18.8321   20.5607  -43.1418 C   0  0  0  0  0  0  0  0  0  0  0  0
  -17.8709   19.6000  -43.1536 C   0  0  0  0  0  0  0  0  0  0  0  0
  -17.0363   19.3550  -42.0842 C   0  0  0  0  0  0  0  0  0  0  0  0
  -16.0186   18.2843  -42.1958 C   0  0  0  0  0  0  0  0  0  0  0  0
  -15.3492   18.0473  -40.9081 C   0  0  0  0  0  0  0  0  0  0  0  0
  -15.6914   18.6890  -39.8994 O   0  0  0  0  0  0  0  0  0  0  0  0
  -14.3080   17.0925  -40.7822 N   0  0  0  0  0  0  0  0  0  0  0  0
  -13.7562   16.7038  -39.5292 C   0  0  1  0  0  0  0  0  0  0  0  0
  -13.3932   15.2564  -39.5441 C   0  0  0  0  0  0  0  0  0  0  0  0
  -14.5439   14.3011  -39.6278 C   0  0  0  0  0  0  0  0  0  0  0  0
  -14.0089   12.8637  -39.6961 C   0  0  0  0  0  0  0  0  0  0  0  0
  -15.2581   14.3993  -38.2707 C   0  0  0  0  0  0  0  0  0  0  0  0
  -12.8463   17.6173  -38.8501 C   0  0  0  0  0  0  0  0  0  0  0  0
  -11.6646   18.0173  -39.5072 C   0  0  0  0  0  0  0  0  0  0  0  0
  -10.7258   18.8550  -39.0029 C   0  0  0  0  0  0  0  0  0  0  0  0
  -10.9413   19.3606  -37.7409 C   0  0  0  0  0  0  0  0  0  0  0  0
  -12.0519   19.0320  -37.0299 C   0  0  0  0  0  0  0  0  0  0  0  0
  -12.9991   18.1511  -37.6089 C   0  0  0  0  0  0  0  0  0  0  0  0
  -14.0882   17.9139  -36.7309 N   0  0  0  0  0  0  0  0  0  0  0  0
  -15.4277   18.1281  -37.1285 C   0  0  0  0  0  0  0  0  0  0  0  0
  -16.2504   18.7026  -36.0153 C   0  0  0  0  0  0  0  0  0  0  0  0
  -16.1064   17.7858  -34.8084 C   0  0  0  0  0  0  0  0  0  0  0  0
  -14.6490   17.8679  -34.3583 C   0  0  0  0  0  0  0  0  0  0  0  0
  -13.7545   17.3679  -35.4506 C   0  0  0  0  0  0  0  0  0  0  0  0
  -17.1798   20.1154  -40.9527 C   0  0  0  0  0  0  0  0  0  0  0  0
  -18.1460   21.0975  -40.9119 C   0  0  0  0  0  0  0  0  0  0  0  0
  -18.9697   21.3313  -41.9816 C   0  0  0  0  0  0  0  0  0  0  0  0
  -19.9947   22.3602  -41.9631 C   0  0  0  0  0  0  0  0  0  0  0  0
  -20.0314   23.1646  -42.9344 O   0  0  0  0  0  0  0  0  0  0  0  0
  -20.9177   22.4962  -40.9457 O   0  0  0  0  0  0  0  0  0  0  0  0
  1  2  1  0
  2  3  1  0
  3  4  1  0
  4  5  2  0
  5  6  1  0
  6  7  1  0
  7  8  1  0
  8  9  2  0
  8 10  1  0
 10 11  1  0
 11 12  1  6
 12 13  1  0
 13 14  1  0
 13 15  1  0
 11 16  1  0
 16 17  2  0
 17 18  1  0
 18 19  2  0
 19 20  1  0
 20 21  2  0
 21 22  1  0
 22 23  1  0
 23 24  1  0
 24 25  1  0
 25 26  1  0
 26 27  1  0
  6 28  2  0
 28 29  1  0
 29 30  2  0
 30 31  1  0
 31 32  2  0
 31 33  1  0
 30  4  1  0
 21 16  1  0
 27 22  1  0
M  END
$$$$
