
     RDKit          3D

 33 35  0  0  0  0  0  0  0  0999 V2000
  -20.6783   36.2172  -28.2328 C   0  0  0  0  0  0  0  0  0  0  0  0
  -20.4672   37.2231  -27.2966 O   0  0  0  0  0  0  0  0  0  0  0  0
  -20.6794   38.5682  -27.4421 C   0  0  0  0  0  0  0  0  0  0  0  0
  -21.4704   39.0290  -28.5029 C   0  0  0  0  0  0  0  0  0  0  0  0
  -21.7286   40.3630  -28.7154 C   0  0  0  0  0  0  0  0  0  0  0  0
  -21.1616   41.2416  -27.8179 C   0  0  0  0  0  0  0  0  0  0  0  0
  -21.4291   42.9740  -27.9983 Cl  0  0  0  0  0  0  0  0  0  0  0  0
  -20.3888   40.8273  -26.7773 C   0  0  0  0  0  0  0  0  0  0  0  0
  -20.1294   39.4658  -26.5662 C   0  0  0  0  0  0  0  0  0  0  0  0
  -19.2943   39.1215  -25.4200 C   0  0  0  0  0  0  0  0  0  0  0  0
  -18.0784   39.5236  -25.3845 O   0  0  0  0  0  0  0  0  0  0  0  0
  -19.6904   38.3654  -24.3010 N   0  0  0  0  0  0  0  0  0  0  0  0
  -19.0995   37.0563  -23.9992 C   0  0  0  0  0  0  0  0  0  0  0  0
  -18.3328   37.0447  -22.7135 C   0  0  0  0  0  0  0  0  0  0  0  0
  -18.3934   38.3889  -22.0559 C   0  0  0  0  0  0  0  0  0  0  0  0
  -18.3942   38.4925  -20.6819 C   0  0  0  0  0  0  0  0  0  0  0  0
  -18.4496   39.6880  -20.0192 C   0  0  0  0  0  0  0  0  0  0  0  0
  -18.5089   40.8795  -20.7375 C   0  0  0  0  0  0  0  0  0  0  0  0
  -18.5819   42.4089  -19.8920 S   0  0  0  0  0  6  0  0  0  0  0  0
  -19.7898   42.4701  -18.9977 O   0  0  0  0  0  0  0  0  0  0  0  0
  -18.7123   43.4948  -20.9036 O   0  0  0  0  0  0  0  0  0  0  0  0
  -17.1206   42.5975  -18.9954 N   0  0  0  0  0  0  0  0  0  0  0  0
  -15.8685   42.7900  -19.6826 C   0  0  0  0  0  0  0  0  0  0  0  0
  -15.8531   42.7091  -20.9248 O   0  0  0  0  0  0  0  0  0  0  0  0
  -14.6819   43.0663  -18.9453 N   0  0  0  0  0  0  0  0  0  0  0  0
  -13.4121   43.2537  -19.5794 C   0  0  0  0  0  0  0  0  0  0  0  0
  -12.3941   43.7859  -18.5936 C   0  0  0  0  0  0  0  0  0  0  0  0
  -11.0112   43.8287  -19.2096 C   0  0  0  0  0  0  0  0  0  0  0  0
  -11.0846   43.9730  -20.7153 C   0  0  0  0  0  0  0  0  0  0  0  0
  -12.2740   44.8062  -21.1353 C   0  0  0  0  0  0  0  0  0  0  0  0
  -13.5888   44.2943  -20.6602 C   0  0  0  0  0  0  0  0  0  0  0  0
  -18.5087   40.7924  -22.1130 C   0  0  0  0  0  0  0  0  0  0  0  0
  -18.4519   39.5621  -22.7753 C   0  0  0  0  0  0  0  0  0  0  0  0
  1  2  1  0
  2  3  1  0
  3  4  2  0
  4  5  1  0
  5  6  2  0
  6  7  1  0
  6  8  1  0
  8  9  2  0
  9 10  1  0
 10 11  2  0
 10 12  1  0
 12 13  1  0
 13 14  1  0
 14 15  1  0
 15 16  2  0
 16 17  1  0
 17 18  2  0
 18 19  1  0
 19 20  2  0
 19 21  2  0
 19 22  1  0
 22 23  1  0
 23 24  2  0
 23 25  1  0
 25 26  1  0
 26 27  1  0
 27 28  1  0
 28 29  1  0
 29 30  1  0
 30 31  1  0
 18 32  1  0
 32 33  2  0
  9  3  1  0
 33 15  1  0
 31 26  1  0
M  END
$$$$
