
     RDKit          3D

 15 15  0  0  0  0  0  0  0  0999 V2000
  -18.4556   36.6725  -22.7339 Cl  0  0  0  0  0  0  0  0  0  0  0  0
  -21.3232   36.4939  -23.0544 Cl  0  0  0  0  0  0  0  0  0  0  0  0
  -19.8749   37.4900  -23.2311 C   0  0  0  0  0  0  0  0  0  0  0  0
  -19.9069   38.4485  -24.2188 C   0  0  0  0  0  0  0  0  0  0  0  0
  -18.7839   39.2541  -24.3895 C   0  0  0  0  0  0  0  0  0  0  0  0
  -17.6790   39.0759  -23.5756 C   0  0  0  0  0  0  0  0  0  0  0  0
  -17.6646   38.1111  -22.5915 C   0  0  0  0  0  0  0  0  0  0  0  0
  -16.2513   37.8873  -21.5546 Cl  0  0  0  0  0  0  0  0  0  0  0  0
  -18.7756   37.3066  -22.4151 C   0  0  0  0  0  0  0  0  0  0  0  0
  -18.8407   36.3009  -21.4352 N   0  0  0  0  0  0  0  0  0  0  0  0
  -18.4332   34.9463  -21.6540 C   0  0  0  0  0  0  0  0  0  0  0  0
  -17.8770   34.5239  -22.7382 N   0  0  0  0  0  0  0  0  0  0  0  0
  -17.5835   33.1061  -22.6525 C   0  0  0  0  0  0  0  0  0  0  0  0
  -17.6493   32.8479  -21.1829 C   0  0  0  0  0  0  0  0  0  0  0  0
  -18.5742   33.8690  -20.7268 N   0  0  0  0  0  0  0  0  0  0  0  0
  2  3  1  0
  3  4  2  0
  4  5  1  0
  5  6  2  0
  6  7  1  0
  7  8  1  0
  7  9  2  0
  9 10  1  0
 10 11  1  0
 11 12  2  0
 12 13  1  0
 13 14  1  0
 14 15  1  0
  9  3  1  0
 15 11  1  0
M  END
$$$$
