
     RDKit          3D

 36 40  0  0  0  0  0  0  0  0999 V2000
  -16.0320   17.8196  -30.3948 C   0  0  0  0  0  0  0  0  0  0  0  0
  -16.4172   17.6157  -31.8632 C   0  0  0  0  0  0  0  0  0  0  0  0
  -17.2761   16.4199  -31.9081 C   0  0  0  0  0  0  0  0  0  0  0  0
  -18.6350   16.4646  -32.1229 C   0  0  0  0  0  0  0  0  0  0  0  0
  -19.4913   17.6135  -32.3456 C   0  0  0  0  0  0  0  0  0  0  0  0
  -19.4727   18.6663  -31.4548 C   0  0  0  0  0  0  0  0  0  0  0  0
  -20.2688   19.7859  -31.6179 C   0  0  0  0  0  0  0  0  0  0  0  0
  -21.1235   19.8920  -32.6937 C   0  0  0  0  0  0  0  0  0  0  0  0
  -21.1509   18.8457  -33.5913 C   0  0  0  0  0  0  0  0  0  0  0  0
  -20.3482   17.7266  -33.4187 C   0  0  0  0  0  0  0  0  0  0  0  0
  -19.0635   15.1604  -32.0862 C   0  0  0  0  0  0  0  0  0  0  0  0
  -20.4153   14.6702  -32.2575 C   0  0  0  0  0  0  0  0  0  0  0  0
  -20.6896   13.5138  -32.9767 C   0  0  0  0  0  0  0  0  0  0  0  0
  -22.0149   13.0879  -33.1095 C   0  0  0  0  0  0  0  0  0  0  0  0
  -23.0506   13.7950  -32.5399 C   0  0  0  0  0  0  0  0  0  0  0  0
  -22.7843   14.9467  -31.8229 C   0  0  0  0  0  0  0  0  0  0  0  0
  -21.4730   15.3730  -31.6883 C   0  0  0  0  0  0  0  0  0  0  0  0
  -17.9868   14.3948  -31.8585 N   0  0  0  0  0  0  0  0  0  0  0  0
  -16.8804   15.1364  -31.7454 N   0  0  0  0  0  0  0  0  0  0  0  0
  -15.5555   14.6931  -31.5127 C   0  0  0  0  0  0  0  0  0  0  0  0
  -15.1798   14.1213  -30.2919 C   0  0  0  0  0  0  0  0  0  0  0  0
  -13.8885   13.6917  -30.0461 C   0  0  0  0  0  0  0  0  0  0  0  0
  -12.9392   13.8237  -31.0169 C   0  0  0  0  0  0  0  0  0  0  0  0
  -13.3076   14.3853  -32.2159 C   0  0  0  0  0  0  0  0  0  0  0  0
  -14.6127   14.8234  -32.4745 C   0  0  0  0  0  0  0  0  0  0  0  0
  -14.9107   15.4026  -33.7742 C   0  0  0  0  0  0  0  0  0  0  0  0
  -15.8706   14.9205  -34.6345 C   0  0  0  0  0  0  0  0  0  0  0  0
  -16.1255   15.5203  -35.8749 C   0  0  0  0  0  0  0  0  0  0  0  0
  -15.4124   16.6298  -36.2812 C   0  0  0  0  0  0  0  0  0  0  0  0
  -14.4502   17.1227  -35.4331 C   0  0  0  0  0  0  0  0  0  0  0  0
  -13.7249   18.2297  -35.8168 O   0  0  0  0  0  0  0  0  0  0  0  0
  -13.7280   18.8050  -37.0831 C   0  0  0  0  0  0  0  0  0  0  0  0
  -13.3681   17.7481  -38.0750 C   0  0  0  0  0  0  0  0  0  0  0  0
  -13.9205   16.5954  -38.0429 O   0  0  0  0  0  0  0  0  0  0  0  0
  -12.4338   17.9353  -39.0759 O   0  0  0  0  0  0  0  0  0  0  0  0
  -14.2042   16.5314  -34.2184 C   0  0  0  0  0  0  0  0  0  0  0  0
  1  2  1  0
  2  3  1  0
  3  4  2  0
  4  5  1  0
  5  6  2  0
  6  7  1  0
  7  8  2  0
  8  9  1  0
  9 10  2  0
  4 11  1  0
 11 12  1  0
 12 13  2  0
 13 14  1  0
 14 15  2  0
 15 16  1  0
 16 17  2  0
 11 18  2  0
 18 19  1  0
 19 20  1  0
 20 21  2  0
 21 22  1  0
 22 23  2  0
 23 24  1  0
 24 25  2  0
 25 26  1  0
 26 27  2  0
 27 28  1  0
 28 29  2  0
 29 30  1  0
 30 31  1  0
 31 32  1  0
 32 33  1  0
 33 34  2  0
 33 35  1  0
 30 36  2  0
 19  3  1  0
 25 20  1  0
 36 26  1  0
 10  5  1  0
 17 12  1  0
M  END
$$$$
