
     RDKit          3D

 41 46  0  0  0  0  0  0  0  0999 V2000
  -18.7630   39.9866  -26.4588 C   0  0  0  0  0  0  0  0  0  0  0  0
  -19.4584   39.1871  -25.3321 C   0  0  0  0  0  0  0  0  0  0  0  0
  -20.6015   40.0540  -24.9016 C   0  0  0  0  0  0  0  0  0  0  0  0
  -18.4388   38.9576  -24.3459 N   0  0  0  0  0  0  0  0  0  0  0  0
  -17.5226   40.0012  -24.1709 C   0  0  0  0  0  0  0  0  0  0  0  0
  -17.6255   40.9187  -23.0257 C   0  0  1  0  0  0  0  0  0  0  0  0
  -16.4844   41.4562  -22.4808 O   0  0  0  0  0  0  0  0  0  0  0  0
  -17.0723   42.2443  -21.4594 C   0  0  1  0  0  0  0  0  0  0  0  0
  -16.1276   42.9826  -20.6959 N   0  0  0  0  0  0  0  0  0  0  0  0
  -14.8032   42.8704  -20.5441 C   0  0  0  0  0  0  0  0  0  0  0  0
  -14.3415   43.8184  -19.7024 N   0  0  0  0  0  0  0  0  0  0  0  0
  -15.3924   44.5778  -19.2884 C   0  0  0  0  0  0  0  0  0  0  0  0
  -15.4860   45.6600  -18.4452 C   0  0  0  0  0  0  0  0  0  0  0  0
  -14.3411   46.1856  -17.8180 N   0  0  0  0  0  0  0  0  0  0  0  0
  -16.6887   46.2112  -18.2285 N   0  0  0  0  0  0  0  0  0  0  0  0
  -17.8048   45.7047  -18.8368 C   0  0  0  0  0  0  0  0  0  0  0  0
  -17.6773   44.6461  -19.6540 N   0  0  0  0  0  0  0  0  0  0  0  0
  -16.4980   44.0394  -19.9197 C   0  0  0  0  0  0  0  0  0  0  0  0
  -18.0051   43.1150  -22.2771 C   0  0  2  0  0  0  0  0  0  0  0  0
  -19.0640   43.5968  -21.5117 O   0  0  0  0  0  0  0  0  0  0  0  0
  -18.4787   42.1478  -23.3384 C   0  0  2  0  0  0  0  0  0  0  0  0
  -19.7984   41.8170  -23.0590 O   0  0  0  0  0  0  0  0  0  0  0  0
  -18.8580   38.3362  -23.1442 C   0  0  1  0  0  0  0  0  0  0  0  0
  -19.4244   36.9569  -23.1973 C   0  0  0  0  0  0  0  0  0  0  0  0
  -18.4665   36.5249  -22.1206 C   0  0  1  0  0  0  0  0  0  0  0  0
  -17.5797   35.3486  -22.4813 C   0  0  0  0  0  0  0  0  0  0  0  0
  -18.4273   34.1075  -22.6468 C   0  0  0  0  0  0  0  0  0  0  0  0
  -19.0488   33.7141  -21.3351 C   0  0  0  0  0  0  0  0  0  0  0  0
  -18.5600   32.8299  -20.4480 N   0  0  0  0  0  0  0  0  0  0  0  0
  -19.3856   32.7249  -19.3959 C   0  0  0  0  0  0  0  0  0  0  0  0
  -19.3611   31.9691  -18.2220 C   0  0  0  0  0  0  0  0  0  0  0  0
  -20.3559   32.0410  -17.2746 C   0  0  0  0  0  0  0  0  0  0  0  0
  -20.3473   31.2539  -16.0231 C   0  0  0  0  0  0  0  0  0  0  0  0
  -19.3690   30.1073  -16.0815 C   0  0  0  0  0  0  0  0  0  0  0  0
  -20.0584   32.1509  -14.8539 C   0  0  0  0  0  0  0  0  0  0  0  0
  -21.7243   30.6530  -15.8305 C   0  0  0  0  0  0  0  0  0  0  0  0
  -21.3905   32.9057  -17.5437 C   0  0  0  0  0  0  0  0  0  0  0  0
  -21.4404   33.6681  -18.7007 C   0  0  0  0  0  0  0  0  0  0  0  0
  -20.4241   33.5800  -19.6457 C   0  0  0  0  0  0  0  0  0  0  0  0
  -20.2077   34.1845  -20.8420 N   0  0  0  0  0  0  0  0  0  0  0  0
  -17.8039   37.8735  -22.1678 C   0  0  0  0  0  0  0  0  0  0  0  0
  1  2  1  0
  2  3  1  0
  2  4  1  0
  4  5  1  0
  6  5  1  6
  6  7  1  0
  7  8  1  0
  8  9  1  6
  9 10  1  0
 10 11  2  0
 11 12  1  0
 12 13  2  0
 13 14  1  0
 13 15  1  0
 15 16  2  0
 16 17  1  0
 17 18  2  0
  8 19  1  0
 19 20  1  1
 19 21  1  0
 21 22  1  1
 23  4  1  6
 23 24  1  0
 24 25  1  0
 25 26  1  6
 26 27  1  0
 27 28  1  0
 28 29  2  0
 29 30  1  0
 30 31  2  0
 31 32  1  0
 32 33  1  0
 33 34  1  0
 33 35  1  0
 33 36  1  0
 32 37  2  0
 37 38  1  0
 38 39  2  0
 39 40  1  0
 25 41  1  0
 21  6  1  0
 41 23  1  0
 18  9  1  0
 40 28  1  0
 18 12  1  0
 39 30  1  0
M  END
$$$$
