
     RDKit          3D

 28 31  0  0  0  0  0  0  0  0999 V2000
  -17.8712   18.8122  -39.4056 C   0  0  0  0  0  0  0  0  0  0  0  0
  -18.3440   19.0479  -38.1071 O   0  0  0  0  0  0  0  0  0  0  0  0
  -17.7509   18.3510  -37.0353 C   0  0  0  0  0  0  0  0  0  0  0  0
  -16.3887   18.1461  -36.9963 C   0  0  0  0  0  0  0  0  0  0  0  0
  -15.8821   17.4579  -35.9190 C   0  0  0  0  0  0  0  0  0  0  0  0
  -14.5800   17.2154  -35.7946 N   0  0  0  0  0  0  0  0  0  0  0  0
  -14.0615   16.5480  -34.7505 C   0  0  0  0  0  0  0  0  0  0  0  0
  -14.8952   16.0964  -33.7727 N   0  0  0  0  0  0  0  0  0  0  0  0
  -16.2220   16.2991  -33.8223 C   0  0  0  0  0  0  0  0  0  0  0  0
  -17.1300   15.8563  -32.8284 N   0  0  0  0  0  0  0  0  0  0  0  0
  -16.7176   15.1186  -31.6702 C   0  0  0  0  0  0  0  0  0  0  0  0
  -16.9801   13.7719  -31.5447 C   0  0  0  0  0  0  0  0  0  0  0  0
  -16.5981   13.0421  -30.4334 C   0  0  0  0  0  0  0  0  0  0  0  0
  -15.9214   13.6623  -29.3851 C   0  0  0  0  0  0  0  0  0  0  0  0
  -15.5356   12.9377  -28.2690 O   0  0  0  0  0  0  0  0  0  0  0  0
  -14.2801   12.5411  -27.9517 C   0  0  0  0  0  0  0  0  0  0  0  0
  -13.6646   13.0106  -26.8178 C   0  0  0  0  0  0  0  0  0  0  0  0
  -12.3862   12.6340  -26.4538 C   0  0  0  0  0  0  0  0  0  0  0  0
  -11.7045   11.7627  -27.2474 C   0  0  0  0  0  0  0  0  0  0  0  0
  -12.2928   11.2624  -28.4074 C   0  0  0  0  0  0  0  0  0  0  0  0
  -13.5915   11.6635  -28.7501 C   0  0  0  0  0  0  0  0  0  0  0  0
  -15.6631   15.0081  -29.5186 C   0  0  0  0  0  0  0  0  0  0  0  0
  -16.0489   15.7337  -30.6357 C   0  0  0  0  0  0  0  0  0  0  0  0
  -16.7244   16.9870  -34.9060 C   0  0  0  0  0  0  0  0  0  0  0  0
  -18.0740   17.2124  -34.9839 C   0  0  0  0  0  0  0  0  0  0  0  0
  -18.6123   17.9026  -36.0568 C   0  0  0  0  0  0  0  0  0  0  0  0
  -19.9797   18.1307  -36.1346 O   0  0  0  0  0  0  0  0  0  0  0  0
  -20.6705   18.6693  -35.0188 C   0  0  0  0  0  0  0  0  0  0  0  0
  1  2  1  0
  2  3  1  0
  3  4  2  0
  4  5  1  0
  5  6  2  0
  6  7  1  0
  7  8  2  0
  8  9  1  0
  9 10  1  0
 10 11  1  0
 11 12  2  0
 12 13  1  0
 13 14  2  0
 14 15  1  0
 15 16  1  0
 16 17  2  0
 17 18  1  0
 18 19  2  0
 19 20  1  0
 20 21  2  0
 14 22  1  0
 22 23  2  0
  9 24  2  0
 24 25  1  0
 25 26  2  0
 26 27  1  0
 27 28  1  0
 26  3  1  0
 24  5  1  0
 23 11  1  0
 21 16  1  0
M  END
$$$$
