
     RDKit          3D

 35 37  0  0  0  0  0  0  0  0999 V2000
  -23.1420   39.2659  -27.7370 C   0  0  0  0  0  0  0  0  0  0  0  0
  -22.2128   40.3544  -27.3433 C   0  0  0  0  0  0  0  0  0  0  0  0
  -21.8873   41.4462  -28.0504 N   0  0  0  0  0  0  0  0  0  0  0  0
  -21.0477   42.1905  -27.4085 O   0  0  0  0  0  0  0  0  0  0  0  0
  -20.7472   41.6589  -26.2286 C   0  0  0  0  0  0  0  0  0  0  0  0
  -19.8208   42.2609  -25.2576 C   0  0  0  0  0  0  0  0  0  0  0  0
  -19.1576   43.4315  -25.5742 C   0  0  0  0  0  0  0  0  0  0  0  0
  -18.2893   44.0326  -24.6889 C   0  0  0  0  0  0  0  0  0  0  0  0
  -18.0372   43.4986  -23.4432 C   0  0  0  0  0  0  0  0  0  0  0  0
  -17.1144   44.1346  -22.5005 C   0  0  0  0  0  0  0  0  0  0  0  0
  -17.3689   43.9931  -21.1487 C   0  0  0  0  0  0  0  0  0  0  0  0
  -16.5328   44.5710  -20.2043 C   0  0  0  0  0  0  0  0  0  0  0  0
  -15.4289   45.2999  -20.5888 C   0  0  0  0  0  0  0  0  0  0  0  0
  -14.5352   45.9183  -19.5948 C   0  0  0  0  0  0  0  0  0  0  0  0
  -13.4623   44.9624  -19.2334 C   0  0  0  0  0  0  0  0  0  0  0  0
  -13.4162   43.8288  -19.7536 O   0  0  0  0  0  0  0  0  0  0  0  0
  -12.4905   45.3244  -18.3042 O   0  0  0  0  0  1  0  0  0  0  0  0
  -15.1721   45.4428  -21.9460 C   0  0  0  0  0  0  0  0  0  0  0  0
  -16.0166   44.8598  -22.8610 C   0  0  0  0  0  0  0  0  0  0  0  0
  -18.6944   42.3315  -23.1193 C   0  0  0  0  0  0  0  0  0  0  0  0
  -19.5759   41.7236  -24.0210 C   0  0  0  0  0  0  0  0  0  0  0  0
  -21.4714   40.4943  -26.1618 C   0  0  0  0  0  0  0  0  0  0  0  0
  -21.4876   39.5518  -25.1161 N   0  0  0  0  0  0  0  0  0  0  0  0
  -20.5952   38.4356  -25.1635 C   0  0  0  0  0  0  0  0  0  0  0  0
  -19.7874   38.2785  -26.1314 O   0  0  0  0  0  0  0  0  0  0  0  0
  -20.5426   37.4614  -24.1817 O   0  0  0  0  0  0  0  0  0  0  0  0
  -19.6616   36.3755  -24.2451 C   0  0  2  0  0  0  0  0  0  0  0  0
  -20.3813   35.0497  -24.3747 C   0  0  0  0  0  0  0  0  0  0  0  0
  -18.7006   36.3202  -23.1376 C   0  0  0  0  0  0  0  0  0  0  0  0
  -18.0091   37.4173  -22.6858 C   0  0  0  0  0  0  0  0  0  0  0  0
  -17.1115   37.3570  -21.6481 C   0  0  0  0  0  0  0  0  0  0  0  0
  -16.8690   36.1673  -21.0110 C   0  0  0  0  0  0  0  0  0  0  0  0
  -17.5459   35.0466  -21.4390 C   0  0  0  0  0  0  0  0  0  0  0  0
  -18.4587   35.1268  -22.5000 C   0  0  0  0  0  0  0  0  0  0  0  0
  -18.6096   40.6626  -23.5200 Na  0  0  0  0  0 15  0  0  0  0  0  0
  1  2  1  0
  2  3  2  0
  3  4  1  0
  4  5  1  0
  5  6  1  0
  6  7  2  0
  7  8  1  0
  8  9  2  0
  9 10  1  0
 10 11  2  0
 11 12  1  0
 12 13  2  0
 13 14  1  0
 14 15  1  0
 15 16  2  0
 15 17  1  0
 13 18  1  0
 18 19  2  0
  9 20  1  0
 20 21  2  0
  5 22  2  0
 22 23  1  0
 23 24  1  0
 24 25  2  0
 24 26  1  0
 26 27  1  0
 27 28  1  1
 27 29  1  0
 29 30  2  0
 30 31  1  0
 31 32  2  0
 32 33  1  0
 33 34  2  0
 22  2  1  0
 34 29  1  0
 21  6  1  0
 19 10  1  0
M  CHG  2  17  -1  35   1
M  END
$$$$
