
     RDKit          3D

 38 42  0  0  0  0  0  0  0  0999 V2000
  -13.5768   13.4560  -32.1811 C   0  0  0  0  0  0  0  0  0  0  0  0
  -14.1503   14.4657  -33.1882 C   0  0  0  0  0  0  0  0  0  0  0  0
  -14.3115   15.7622  -32.4015 C   0  0  2  0  0  0  0  0  0  0  0  0
  -14.1277   15.3512  -30.9617 C   0  0  0  0  0  0  0  0  0  0  0  0
  -13.0217   15.4968  -30.3581 O   0  0  0  0  0  0  0  0  0  0  0  0
  -15.2513   14.7903  -30.3078 N   0  0  0  0  0  0  0  0  0  0  0  0
  -15.0849   13.9532  -29.1290 C   0  0  0  0  0  0  0  0  0  0  0  0
  -16.5526   15.0490  -30.8032 C   0  0  0  0  0  0  0  0  0  0  0  0
  -17.6961   14.5391  -30.1945 C   0  0  0  0  0  0  0  0  0  0  0  0
  -18.9241   14.8112  -30.6772 N   0  0  0  0  0  0  0  0  0  0  0  0
  -19.0570   15.5820  -31.7571 C   0  0  0  0  0  0  0  0  0  0  0  0
  -20.2961   15.9179  -32.3216 N   0  0  0  0  0  0  0  0  0  0  0  0
  -20.4919   16.4827  -33.5952 C   0  0  0  0  0  0  0  0  0  0  0  0
  -19.4690   16.6776  -34.4663 C   0  0  0  0  0  0  0  0  0  0  0  0
  -19.7598   17.3008  -35.7010 C   0  0  0  0  0  0  0  0  0  0  0  0
  -20.9964   17.7077  -36.0491 C   0  0  0  0  0  0  0  0  0  0  0  0
  -21.2571   18.3674  -37.3222 C   0  0  0  0  0  0  0  0  0  0  0  0
  -22.0365   17.8441  -38.1872 O   0  0  0  0  0  0  0  0  0  0  0  0
  -20.6980   19.6099  -37.7198 N   0  0  0  0  0  0  0  0  0  0  0  0
  -20.6572   20.0440  -39.1021 C   0  0  0  0  0  0  0  0  0  0  0  0
  -22.0905   20.3937  -39.5117 C   0  0  0  0  0  0  0  0  0  0  0  0
  -22.2906   21.8680  -39.3734 C   0  0  0  0  0  0  0  0  0  0  0  0
  -21.4795   22.5454  -40.3745 N   0  0  0  0  0  0  0  0  0  0  0  0
  -21.7306   23.9598  -40.3328 C   0  0  0  0  0  0  0  0  0  0  0  0
  -20.0940   22.1816  -40.3257 C   0  0  0  0  0  0  0  0  0  0  0  0
  -19.7542   21.2094  -39.2284 C   0  0  0  0  0  0  0  0  0  0  0  0
  -22.0155   17.5044  -35.1624 C   0  0  0  0  0  0  0  0  0  0  0  0
  -21.8354   16.8915  -33.9031 C   0  0  0  0  0  0  0  0  0  0  0  0
  -22.8208   16.7181  -33.0991 O   0  0  0  0  0  0  0  0  0  0  0  0
  -23.8001   16.5546  -32.2961 C   0  0  0  0  0  0  0  0  0  0  0  0
  -17.9456   16.0932  -32.3743 N   0  0  0  0  0  0  0  0  0  0  0  0
  -16.6931   15.8387  -31.9151 C   0  0  0  0  0  0  0  0  0  0  0  0
  -15.5649   16.4112  -32.5973 N   0  0  0  0  0  0  0  0  0  0  0  0
  -15.7973   17.5737  -33.4052 C   0  0  0  0  0  0  0  0  0  0  0  0
  -16.2516   17.2844  -34.8094 C   0  0  0  0  0  0  0  0  0  0  0  0
  -15.0039   17.2254  -35.6490 C   0  0  0  0  0  0  0  0  0  0  0  0
  -13.9713   18.0701  -34.9355 C   0  0  0  0  0  0  0  0  0  0  0  0
  -14.5546   18.4173  -33.5783 C   0  0  0  0  0  0  0  0  0  0  0  0
  1  2  1  0
  3  2  1  6
  3  4  1  0
  4  5  2  0
  4  6  1  0
  6  7  1  0
  6  8  1  0
  8  9  2  0
  9 10  1  0
 10 11  2  0
 11 12  1  0
 12 13  1  0
 13 14  2  0
 14 15  1  0
 15 16  2  0
 16 17  1  0
 17 18  2  0
 17 19  1  0
 19 20  1  0
 20 21  1  0
 21 22  1  0
 22 23  1  0
 23 24  1  0
 23 25  1  0
 25 26  1  0
 16 27  1  0
 27 28  2  0
 28 29  1  0
 29 30  1  0
 11 31  1  0
 31 32  2  0
 32 33  1  0
 33 34  1  0
 34 35  1  0
 35 36  1  0
 36 37  1  0
 37 38  1  0
 33  3  1  0
 38 34  1  0
 32  8  1  0
 28 13  1  0
 26 20  1  0
M  END
$$$$
