
     RDKit          3D

 32 34  0  0  0  0  0  0  0  0999 V2000
  -20.2308   38.2266  -27.3385 C   0  0  0  0  0  0  0  0  0  0  0  0
  -19.8928   39.3988  -26.5031 C   0  0  0  0  0  0  0  0  0  0  0  0
  -20.1366   40.6698  -26.8345 N   0  0  0  0  0  0  0  0  0  0  0  0
  -19.7140   41.4011  -25.8845 O   0  0  0  0  0  0  0  0  0  0  0  0
  -19.1813   40.7238  -24.8910 C   0  0  0  0  0  0  0  0  0  0  0  0
  -18.6298   41.3522  -23.6913 C   0  0  0  0  0  0  0  0  0  0  0  0
  -19.1992   42.5107  -23.1817 C   0  0  0  0  0  0  0  0  0  0  0  0
  -18.7251   43.1392  -22.0478 C   0  0  0  0  0  0  0  0  0  0  0  0
  -17.6454   42.6443  -21.3496 C   0  0  0  0  0  0  0  0  0  0  0  0
  -17.1246   43.3176  -20.1209 C   0  0  0  0  0  0  0  0  0  0  0  0
  -15.3961   43.7892  -20.2950 S   0  0  0  0  0  0  0  0  0  0  0  0
  -14.8246   44.3679  -18.6571 C   0  0  0  0  0  0  0  0  0  0  0  0
  -13.3391   44.0990  -18.6029 C   0  0  0  0  0  0  0  0  0  0  0  0
  -13.0407   42.6586  -18.6355 C   0  0  0  0  0  0  0  0  0  0  0  0
  -11.8600   42.2516  -18.7609 O   0  0  0  0  0  0  0  0  0  0  0  0
  -14.0481   41.7237  -18.5292 O   0  0  0  0  0  0  0  0  0  0  0  0
  -17.0735   41.4967  -21.8455 C   0  0  0  0  0  0  0  0  0  0  0  0
  -17.5533   40.8601  -22.9932 C   0  0  0  0  0  0  0  0  0  0  0  0
  -19.2740   39.4029  -25.2496 C   0  0  0  0  0  0  0  0  0  0  0  0
  -18.8195   38.2822  -24.5161 N   0  0  0  0  0  0  0  0  0  0  0  0
  -19.6892   37.4330  -23.7879 C   0  0  0  0  0  0  0  0  0  0  0  0
  -20.8143   37.9157  -23.4675 O   0  0  0  0  0  0  0  0  0  0  0  0
  -19.3651   36.1339  -23.4239 O   0  0  0  0  0  0  0  0  0  0  0  0
  -19.2454   35.7969  -22.0539 C   0  0  0  0  0  0  0  0  0  0  0  0
  -17.8556   36.0232  -21.5291 C   0  0  0  0  0  0  0  0  0  0  0  0
  -19.6568   34.3715  -21.8562 C   0  0  0  0  0  0  0  0  0  0  0  0
  -19.1194   33.3785  -22.6557 C   0  0  0  0  0  0  0  0  0  0  0  0
  -19.4984   32.0603  -22.4752 C   0  0  0  0  0  0  0  0  0  0  0  0
  -20.4069   31.7278  -21.5056 C   0  0  0  0  0  0  0  0  0  0  0  0
  -20.9443   32.7043  -20.7092 C   0  0  0  0  0  0  0  0  0  0  0  0
  -20.5734   34.0149  -20.8820 C   0  0  0  0  0  0  0  0  0  0  0  0
  -21.2454   35.2749  -19.8789 Cl  0  0  0  0  0  0  0  0  0  0  0  0
  1  2  1  0
  2  3  2  0
  3  4  1  0
  4  5  1  0
  5  6  1  0
  6  7  2  0
  7  8  1  0
  8  9  2  0
  9 10  1  0
 10 11  1  0
 11 12  1  0
 12 13  1  0
 13 14  1  0
 14 15  2  0
 14 16  1  0
  9 17  1  0
 17 18  2  0
  5 19  2  0
 19 20  1  0
 20 21  1  0
 21 22  2  0
 21 23  1  0
 23 24  1  0
 24 25  1  0
 24 26  1  0
 26 27  2  0
 27 28  1  0
 28 29  2  0
 29 30  1  0
 30 31  2  0
 31 32  1  0
 19  2  1  0
 31 26  1  0
 18  6  1  0
M  END
$$$$
