
     RDKit          3D

 32 34  0  0  0  0  0  0  0  0999 V2000
  -21.9066   33.8461  -21.9338 C   0  0  0  0  0  0  0  0  0  0  0  0
  -20.8013   34.2348  -20.9996 C   0  0  0  0  0  0  0  0  0  0  0  0
  -19.5254   34.5867  -21.7726 C   0  0  0  0  0  0  0  0  0  0  0  0
  -18.5590   35.0325  -20.8090 N   0  0  0  0  0  0  0  0  0  0  0  0
  -17.0701   35.4268  -21.5930 S   0  0  0  0  0  6  0  0  0  0  0  0
  -15.9715   35.6053  -20.5907 O   0  0  0  0  0  0  0  0  0  0  0  0
  -16.6356   34.3428  -22.5372 O   0  0  0  0  0  0  0  0  0  0  0  0
  -17.3081   36.8863  -22.4747 N   0  0  0  0  0  0  0  0  0  0  0  0
  -17.6390   38.1149  -21.8450 C   0  0  0  0  0  0  0  0  0  0  0  0
  -17.6132   38.2824  -20.5030 N   0  0  0  0  0  0  0  0  0  0  0  0
  -17.9266   39.4459  -19.9048 C   0  0  0  0  0  0  0  0  0  0  0  0
  -18.2886   40.5167  -20.6553 N   0  0  0  0  0  0  0  0  0  0  0  0
  -18.3366   40.4235  -21.9968 C   0  0  0  0  0  0  0  0  0  0  0  0
  -18.6973   41.4752  -22.8245 O   0  0  0  0  0  0  0  0  0  0  0  0
  -18.8363   42.7632  -22.2221 C   0  0  0  0  0  0  0  0  0  0  0  0
  -20.1407   42.8884  -21.4858 C   0  0  0  0  0  0  0  0  0  0  0  0
  -20.0183   43.7755  -20.4225 O   0  0  0  0  0  0  0  0  0  0  0  0
  -19.1708   44.8644  -20.3446 C   0  0  0  0  0  0  0  0  0  0  0  0
  -19.6170   46.1030  -20.5911 N   0  0  0  0  0  0  0  0  0  0  0  0
  -18.8143   47.1908  -20.5239 C   0  0  0  0  0  0  0  0  0  0  0  0
  -17.5044   47.0214  -20.1937 C   0  0  0  0  0  0  0  0  0  0  0  0
  -16.3504   48.5307  -20.0909 Br  0  0  0  0  0  0  0  0  0  0  0  0
  -17.0248   45.7483  -19.9354 C   0  0  0  0  0  0  0  0  0  0  0  0
  -17.8825   44.7015  -20.0202 N   0  0  0  0  0  0  0  0  0  0  0  0
  -18.0101   39.2184  -22.5834 C   0  0  0  0  0  0  0  0  0  0  0  0
  -18.0573   39.1038  -24.0236 C   0  0  0  0  0  0  0  0  0  0  0  0
  -19.1789   38.5473  -24.6069 C   0  0  0  0  0  0  0  0  0  0  0  0
  -19.3351   38.3876  -25.9614 C   0  0  0  0  0  0  0  0  0  0  0  0
  -18.2905   38.8187  -26.7729 C   0  0  0  0  0  0  0  0  0  0  0  0
  -18.4899   38.6060  -28.6410 Br  0  0  0  0  0  0  0  0  0  0  0  0
  -17.1679   39.3735  -26.2238 C   0  0  0  0  0  0  0  0  0  0  0  0
  -17.0431   39.5193  -24.8582 C   0  0  0  0  0  0  0  0  0  0  0  0
  1  2  1  0
  2  3  1  0
  3  4  1  0
  4  5  1  0
  5  6  2  0
  5  7  2  0
  5  8  1  0
  8  9  1  0
  9 10  2  0
 10 11  1  0
 11 12  2  0
 12 13  1  0
 13 14  1  0
 14 15  1  0
 15 16  1  0
 16 17  1  0
 17 18  1  0
 18 19  2  0
 19 20  1  0
 20 21  2  0
 21 22  1  0
 21 23  1  0
 23 24  2  0
 13 25  2  0
 25 26  1  0
 26 27  2  0
 27 28  1  0
 28 29  2  0
 29 30  1  0
 29 31  1  0
 31 32  2  0
 25  9  1  0
 32 26  1  0
 24 18  1  0
M  END
$$$$
