
     RDKit          3D

 30 33  0  0  0  0  0  0  0  0999 V2000
  -11.0047   44.4395  -20.1183 C   0  0  0  0  0  0  0  0  0  0  0  0
  -12.1719   45.1942  -19.5105 C   0  0  0  0  0  0  0  0  0  0  0  0
  -13.0648   45.5614  -20.5659 O   0  0  0  0  0  0  0  0  0  0  0  0
  -14.1521   44.7019  -20.7640 C   0  0  0  0  0  0  0  0  0  0  0  0
  -13.9821   43.5016  -20.4680 O   0  0  0  0  0  0  0  0  0  0  0  0
  -15.4332   45.2014  -21.3077 C   0  0  0  0  0  0  0  0  0  0  0  0
  -15.6600   46.4620  -21.8272 C   0  0  0  0  0  0  0  0  0  0  0  0
  -16.9169   46.4511  -22.2918 N   0  0  0  0  0  0  0  0  0  0  0  0
  -17.4330   45.2108  -22.0531 C   0  0  0  0  0  0  0  0  0  0  0  0
  -18.6674   44.6389  -22.3392 C   0  0  0  0  0  0  0  0  0  0  0  0
  -18.9341   43.3317  -22.0056 C   0  0  0  0  0  0  0  0  0  0  0  0
  -18.0007   42.5194  -21.3713 C   0  0  0  0  0  0  0  0  0  0  0  0
  -18.2399   41.1150  -21.0975 C   0  0  0  0  0  0  0  0  0  0  0  0
  -18.9724   40.6885  -20.0038 C   0  0  0  0  0  0  0  0  0  0  0  0
  -19.1249   39.3821  -19.6804 N   0  0  0  0  0  0  0  0  0  0  0  0
  -18.5831   38.4000  -20.3841 C   0  0  0  0  0  0  0  0  0  0  0  0
  -17.8309   38.7609  -21.4972 C   0  0  0  0  0  0  0  0  0  0  0  0
  -17.1627   37.7345  -22.1912 N   0  0  0  0  0  0  0  0  0  0  0  0
  -17.9677   36.4237  -22.8850 S   0  0  0  0  0  6  0  0  0  0  0  0
  -18.7784   35.6596  -21.8246 O   0  0  0  0  0  0  0  0  0  0  0  0
  -16.9209   35.4404  -23.3662 O   0  0  0  0  0  0  0  0  0  0  0  0
  -19.0355   36.8639  -24.1821 C   0  0  0  0  0  0  0  0  0  0  0  0
  -18.6345   36.5484  -25.4905 C   0  0  0  0  0  0  0  0  0  0  0  0
  -19.4547   36.8111  -26.5624 C   0  0  0  0  0  0  0  0  0  0  0  0
  -20.6798   37.3909  -26.3436 C   0  0  0  0  0  0  0  0  0  0  0  0
  -21.1037   37.7170  -25.0662 C   0  0  0  0  0  0  0  0  0  0  0  0
  -20.2608   37.4451  -23.9858 C   0  0  0  0  0  0  0  0  0  0  0  0
  -17.6673   40.1008  -21.8479 C   0  0  0  0  0  0  0  0  0  0  0  0
  -16.7909   43.1423  -21.1116 C   0  0  0  0  0  0  0  0  0  0  0  0
  -16.5291   44.4363  -21.4473 N   0  0  0  0  0  0  0  0  0  0  0  0
  1  2  1  0
  2  3  1  0
  3  4  1  0
  4  5  2  0
  4  6  1  0
  6  7  2  0
  7  8  1  0
  8  9  2  0
  9 10  1  0
 10 11  2  0
 11 12  1  0
 12 13  1  0
 13 14  2  0
 14 15  1  0
 15 16  2  0
 16 17  1  0
 17 18  1  0
 18 19  1  0
 19 20  2  0
 19 21  2  0
 19 22  1  0
 22 23  2  0
 23 24  1  0
 24 25  2  0
 25 26  1  0
 26 27  2  0
 17 28  2  0
 12 29  2  0
 29 30  1  0
 30  6  1  0
 30  9  1  0
 28 13  1  0
 27 22  1  0
M  END
$$$$
