
     RDKit          3D

 14 14  0  0  0  0  0  0  0  0999 V2000
  -14.6289   -0.1890  -31.8392 Cl  0  0  0  0  0  0  0  0  0  0  0  0
  -14.4720   -2.5134  -29.6339 N   0  0  0  0  0  0  0  0  0  0  0  0
  -15.2542   -3.2679  -30.5513 C   0  0  0  0  0  0  0  0  0  0  0  0
  -15.0780   -2.8731  -32.0069 C   0  0  0  0  0  0  0  0  0  0  0  0
  -15.4313   -1.4635  -32.2636 C   0  0  0  0  0  0  0  0  0  0  0  0
  -16.6002   -0.9340  -32.7658 C   0  0  0  0  0  0  0  0  0  0  0  0
  -16.5368    0.3909  -32.8172 N   0  0  0  0  0  0  0  0  0  0  0  0
  -15.3290    0.7319  -32.3497 C   0  0  0  0  0  0  0  0  0  0  0  0
  -14.7223    1.9555  -32.1776 C   0  0  0  0  0  0  0  0  0  0  0  0
  -13.4525    2.0981  -31.6779 C   0  0  0  0  0  0  0  0  0  0  0  0
  -12.7393    0.9770  -31.3274 C   0  0  0  0  0  0  0  0  0  0  0  0
  -11.4821    1.1311  -30.8367 F   0  0  0  0  0  0  0  0  0  0  0  0
  -13.3258   -0.2530  -31.4905 C   0  0  0  0  0  0  0  0  0  0  0  0
  -14.5949   -0.3918  -31.9890 C   0  0  0  0  0  0  0  0  0  0  0  0
  2  3  1  0
  3  4  1  0
  4  5  1  0
  5  6  2  0
  6  7  1  0
  7  8  1  0
  8  9  2  0
  9 10  1  0
 10 11  2  0
 11 12  1  0
 11 13  1  0
 13 14  2  0
 14  5  1  0
 14  8  1  0
M  END
$$$$
