
     RDKit          3D

 30 33  0  0  0  0  0  0  0  0999 V2000
  -27.1903   31.8145  -36.1157 C   0  0  0  0  0  0  0  0  0  0  0  0
  -26.5268   30.6085  -36.7385 C   0  0  0  0  0  0  0  0  0  0  0  0
  -27.1286   29.4165  -36.2291 N   0  0  0  0  0  0  0  0  0  0  0  0
  -26.4557   28.9064  -35.0533 C   0  0  0  0  0  0  0  0  0  0  0  0
  -26.6952   27.4301  -34.8890 C   0  0  0  0  0  0  0  0  0  0  0  0
  -26.2378   26.6354  -36.0075 N   0  0  0  0  0  0  0  0  0  0  0  0
  -24.8877   26.1604  -35.8316 C   0  0  0  0  0  0  0  0  0  0  0  0
  -24.5065   25.4266  -37.0601 C   0  0  0  0  0  0  0  0  0  0  0  0
  -25.3540   24.5734  -37.7172 C   0  0  0  0  0  0  0  0  0  0  0  0
  -24.9617   23.8961  -38.8466 C   0  0  0  0  0  0  0  0  0  0  0  0
  -23.6748   24.0984  -39.3103 C   0  0  0  0  0  0  0  0  0  0  0  0
  -23.2673   23.3479  -40.5421 C   0  0  0  0  0  0  0  0  0  0  0  0
  -23.3237   21.9901  -40.2967 F   0  0  0  0  0  0  0  0  0  0  0  0
  -24.0850   23.6191  -41.6052 F   0  0  0  0  0  0  0  0  0  0  0  0
  -21.9508   23.7029  -40.7962 F   0  0  0  0  0  0  0  0  0  0  0  0
  -22.7913   24.9409  -38.6875 C   0  0  0  0  0  0  0  0  0  0  0  0
  -23.2114   25.6071  -37.5573 C   0  0  0  0  0  0  0  0  0  0  0  0
  -24.6572   25.3590  -34.6260 C   0  0  0  0  0  0  0  0  0  0  0  0
  -25.2490   24.1339  -34.4229 C   0  0  0  0  0  0  0  0  0  0  0  0
  -25.0490   23.3671  -33.2963 C   0  0  0  0  0  0  0  0  0  0  0  0
  -24.1913   23.8874  -32.3202 C   0  0  0  0  0  0  0  0  0  0  0  0
  -23.9578   23.1506  -31.1607 C   0  0  0  0  0  0  0  0  0  0  0  0
  -23.1251   23.6268  -30.1793 C   0  0  0  0  0  0  0  0  0  0  0  0
  -22.5437   24.8550  -30.4048 C   0  0  0  0  0  0  0  0  0  0  0  0
  -22.7724   25.5581  -31.5221 N   0  0  0  0  0  0  0  0  0  0  0  0
  -23.5977   25.1066  -32.5150 C   0  0  0  0  0  0  0  0  0  0  0  0
  -23.8184   25.8373  -33.6413 C   0  0  0  0  0  0  0  0  0  0  0  0
  -23.1773   27.0652  -33.7619 O   0  0  0  0  0  0  0  0  0  0  0  0
  -26.2387   27.4142  -37.2410 C   0  0  0  0  0  0  0  0  0  0  0  0
  -27.3446   28.4168  -37.2265 C   0  0  0  0  0  0  0  0  0  0  0  0
  1  2  1  0
  2  3  1  0
  3  4  1  0
  4  5  1  0
  5  6  1  0
  6  7  1  0
  7  8  1  0
  8  9  2  0
  9 10  1  0
 10 11  2  0
 11 12  1  0
 12 13  1  0
 12 14  1  0
 12 15  1  0
 11 16  1  0
 16 17  2  0
  7 18  1  0
 18 19  2  0
 19 20  1  0
 20 21  2  0
 21 22  1  0
 22 23  2  0
 23 24  1  0
 24 25  2  0
 25 26  1  0
 26 27  2  0
 27 28  1  0
  6 29  1  0
 29 30  1  0
 30  3  1  0
 17  8  1  0
 27 18  1  0
 26 21  1  0
M  END
$$$$
