
     RDKit          3D

 27 29  0  0  0  0  0  0  0  0999 V2000
  -29.9112   21.3445  -30.8339 C   0  0  0  0  0  0  0  0  0  0  0  0
  -29.4829   20.2132  -30.1344 O   0  0  0  0  0  0  0  0  0  0  0  0
  -28.6305   20.3288  -29.0476 C   0  0  0  0  0  0  0  0  0  0  0  0
  -28.3722   21.5762  -28.5470 C   0  0  0  0  0  0  0  0  0  0  0  0
  -27.5275   21.7006  -27.4686 C   0  0  0  0  0  0  0  0  0  0  0  0
  -26.9605   20.5824  -26.9145 C   0  0  0  0  0  0  0  0  0  0  0  0
  -27.1969   19.3072  -27.3917 C   0  0  0  0  0  0  0  0  0  0  0  0
  -26.5709   18.1510  -26.7689 C   0  0  0  0  0  0  0  0  0  0  0  0
  -25.4479   18.2812  -26.2227 O   0  0  0  0  0  0  0  0  0  0  0  0
  -27.1640   16.8634  -26.7415 N   0  0  0  0  0  0  0  0  0  0  0  0
  -26.6288   15.7617  -26.0179 C   0  0  0  0  0  0  0  0  0  0  0  0
  -26.9855   14.9115  -25.2580 N   0  0  0  0  0  0  0  0  0  0  0  0
  -26.2443   13.9776  -24.7200 C   0  0  0  0  0  0  0  0  0  0  0  0
  -24.9426   13.9518  -25.0407 C   0  0  0  0  0  0  0  0  0  0  0  0
  -23.8117   13.0865  -24.6587 C   0  0  0  0  0  0  0  0  0  0  0  0
  -23.0029   13.6531  -23.5476 C   0  0  0  0  0  0  0  0  0  0  0  0
  -23.4766   13.6663  -22.2650 C   0  0  0  0  0  0  0  0  0  0  0  0
  -22.7043   14.1972  -21.2602 C   0  0  0  0  0  0  0  0  0  0  0  0
  -21.4441   14.7263  -21.5099 C   0  0  0  0  0  0  0  0  0  0  0  0
  -20.9936   14.6980  -22.8180 C   0  0  0  0  0  0  0  0  0  0  0  0
  -19.6311   15.2586  -23.1517 C   0  0  0  0  0  0  0  0  0  0  0  0
  -19.0179   14.4815  -24.1050 F   0  0  0  0  0  0  0  0  0  0  0  0
  -19.7913   16.5761  -23.5734 F   0  0  0  0  0  0  0  0  0  0  0  0
  -18.8867   15.1743  -21.9964 F   0  0  0  0  0  0  0  0  0  0  0  0
  -21.7668   14.1669  -23.8214 C   0  0  0  0  0  0  0  0  0  0  0  0
  -24.8238   15.3701  -26.1838 S   0  0  0  0  0  0  0  0  0  0  0  0
  -28.0469   19.2090  -28.4730 C   0  0  0  0  0  0  0  0  0  0  0  0
  1  2  1  0
  2  3  1  0
  3  4  2  0
  4  5  1  0
  5  6  2  0
  6  7  1  0
  7  8  1  0
  8  9  2  0
  8 10  1  0
 10 11  1  0
 11 12  2  0
 12 13  1  0
 13 14  2  0
 14 15  1  0
 15 16  1  0
 16 17  2  0
 17 18  1  0
 18 19  2  0
 19 20  1  0
 20 21  1  0
 21 22  1  0
 21 23  1  0
 21 24  1  0
 20 25  2  0
 14 26  1  0
  7 27  2  0
 27  3  1  0
 26 11  1  0
 25 16  1  0
M  END
$$$$
