
     RDKit          3D

 39 44  0  0  0  0  0  0  0  0999 V2000
  -20.0198   11.6360  -34.2774 C   0  0  0  0  0  0  0  0  0  0  0  0
  -20.4475   12.0184  -32.8818 C   0  0  1  0  0  0  0  0  0  0  0  0
  -19.5124   12.9252  -32.1712 C   0  0  0  0  0  0  0  0  0  0  0  0
  -19.6575   14.3233  -32.4261 N   0  0  0  0  0  0  0  0  0  0  0  0
  -18.4629   14.7600  -33.1156 C   0  0  0  0  0  0  0  0  0  0  0  0
  -17.8574   15.9745  -32.5114 C   0  0  0  0  0  0  0  0  0  0  0  0
  -17.3307   15.9211  -31.3470 O   0  0  0  0  0  0  0  0  0  0  0  0
  -17.8307   17.2244  -33.1746 N   0  0  0  0  0  0  0  0  0  0  0  0
  -17.2448   17.3517  -34.4537 C   0  0  0  0  0  0  0  0  0  0  0  0
  -17.7370   16.7021  -35.5674 C   0  0  0  0  0  0  0  0  0  0  0  0
  -17.0958   16.8825  -36.8029 C   0  0  0  0  0  0  0  0  0  0  0  0
  -16.0071   17.6793  -36.9219 C   0  0  0  0  0  0  0  0  0  0  0  0
  -15.4879   18.3465  -35.8256 C   0  0  0  0  0  0  0  0  0  0  0  0
  -16.1197   18.1607  -34.6377 C   0  0  0  0  0  0  0  0  0  0  0  0
  -14.3219   19.2327  -35.9663 C   0  0  0  0  0  0  0  0  0  0  0  0
  -13.1955   18.6355  -36.6969 C   0  0  0  0  0  0  0  0  0  0  0  0
  -11.8923   18.7154  -36.2108 C   0  0  0  0  0  0  0  0  0  0  0  0
  -10.8652   18.1661  -36.9338 C   0  0  0  0  0  0  0  0  0  0  0  0
  -11.1093   17.5408  -38.1268 C   0  0  0  0  0  0  0  0  0  0  0  0
  -12.4221   17.4350  -38.6602 C   0  0  0  0  0  0  0  0  0  0  0  0
  -12.5886   16.7764  -39.9297 C   0  0  0  0  0  0  0  0  0  0  0  0
  -11.9994   15.6262  -40.3608 C   0  0  0  0  0  0  0  0  0  0  0  0
  -12.2334   15.0761  -41.6193 C   0  0  0  0  0  0  0  0  0  0  0  0
  -11.6738   14.0148  -41.9827 O   0  0  0  0  0  0  0  0  0  0  0  0
  -13.0985   15.7254  -42.4647 C   0  0  0  0  0  0  0  0  0  0  0  0
  -13.6725   16.8815  -41.9964 C   0  0  0  0  0  0  0  0  0  0  0  0
  -14.5860   17.5777  -42.8749 N   0  0  0  0  0  0  0  0  0  0  0  0
  -15.5916   18.4727  -42.3998 C   0  0  0  0  0  0  0  0  0  0  0  0
  -16.1160   19.2174  -43.6353 C   0  0  0  0  0  0  0  0  0  0  0  0
  -16.7183   18.2867  -44.4553 O   0  0  0  0  0  0  0  0  0  0  0  0
  -15.8624   17.3080  -44.9005 C   0  0  0  0  0  0  0  0  0  0  0  0
  -14.4824   17.3618  -44.3035 C   0  0  0  0  0  0  0  0  0  0  0  0
  -13.4132   17.3354  -40.8215 O   0  0  0  0  0  0  0  0  0  0  0  0
  -13.3881   17.9876  -37.9160 C   0  0  0  0  0  0  0  0  0  0  0  0
  -15.1070   17.9415  -38.4466 S   0  0  0  0  0  0  0  0  0  0  0  0
  -20.8389   14.7239  -33.0864 C   0  0  0  0  0  0  0  0  0  0  0  0
  -21.9364   13.7545  -33.2400 C   0  0  1  0  0  0  0  0  0  0  0  0
  -22.2983   13.6603  -34.7277 C   0  0  0  0  0  0  0  0  0  0  0  0
  -21.7227   12.4893  -32.7915 O   0  0  0  0  0  0  0  0  0  0  0  0
  2  1  1  6
  2  3  1  0
  3  4  1  0
  4  5  1  0
  5  6  1  0
  6  7  2  0
  6  8  1  0
  8  9  1  0
  9 10  2  0
 10 11  1  0
 11 12  2  0
 12 13  1  0
 13 14  2  0
 13 15  1  0
 15 16  1  0
 16 17  2  0
 17 18  1  0
 18 19  2  0
 19 20  1  0
 20 21  1  0
 21 22  2  0
 22 23  1  0
 23 24  2  0
 23 25  1  0
 25 26  2  0
 26 27  1  0
 27 28  1  0
 28 29  1  0
 29 30  1  0
 30 31  1  0
 31 32  1  0
 26 33  1  0
 20 34  2  0
 34 35  1  0
  4 36  1  0
 36 37  1  0
 37 38  1  6
 37 39  1  0
 39  2  1  0
 14  9  1  0
 34 16  1  0
 35 12  1  0
 33 21  1  0
 32 27  1  0
M  END
$$$$
