
     RDKit          3D

 23 24  0  0  0  0  0  0  0  0999 V2000
  -15.7804   41.3928  -20.2982 C   0  0  0  0  0  0  0  0  0  0  0  0
  -17.1570   41.7935  -20.2341 O   0  0  0  0  0  0  0  0  0  0  0  0
  -17.8698   42.0677  -21.3928 C   0  0  0  0  0  0  0  0  0  0  0  0
  -17.6737   43.2796  -22.0535 C   0  0  0  0  0  0  0  0  0  0  0  0
  -16.7037   44.2258  -21.4700 C   0  0  0  0  0  0  0  0  0  0  0  0
  -18.3604   43.5801  -23.2035 C   0  0  0  0  0  0  0  0  0  0  0  0
  -19.2671   42.6480  -23.7090 C   0  0  0  0  0  0  0  0  0  0  0  0
  -19.4364   41.4622  -23.0312 C   0  0  0  0  0  0  0  0  0  0  0  0
  -20.3348   40.5391  -23.5325 O   0  0  0  0  0  0  0  0  0  0  0  0
  -18.7537   41.1299  -21.8617 C   0  0  0  0  0  0  0  0  0  0  0  0
  -19.0351   39.8347  -21.1932 C   0  0  0  0  0  0  0  0  0  0  0  0
  -18.2848   38.7855  -21.9242 C   0  0  0  0  0  0  0  0  0  0  0  0
  -17.9314   37.6169  -21.4243 C   0  0  0  0  0  0  0  0  0  0  0  0
  -18.2725   37.3026  -20.0321 C   0  0  0  0  0  0  0  0  0  0  0  0
  -17.1844   36.6736  -22.3130 C   0  0  0  0  0  0  0  0  0  0  0  0
  -18.0513   35.6692  -22.9792 C   0  0  0  0  0  0  0  0  0  0  0  0
  -19.0848   35.0629  -22.1041 C   0  0  0  0  0  0  0  0  0  0  0  0
  -18.8715   34.0246  -21.4274 O   0  0  0  0  0  0  0  0  0  0  0  0
  -20.3763   35.6086  -21.9711 O   0  0  0  0  0  0  0  0  0  0  0  0
  -19.8688   43.1966  -24.9283 C   0  0  0  0  0  0  0  0  0  0  0  0
  -20.7257   42.5912  -25.6154 O   0  0  0  0  0  0  0  0  0  0  0  0
  -19.3057   44.4317  -25.1118 O   0  0  0  0  0  0  0  0  0  0  0  0
  -18.3727   44.7486  -24.1164 C   0  0  0  0  0  0  0  0  0  0  0  0
  1  2  1  0
  2  3  1  0
  3  4  2  0
  4  5  1  0
  4  6  1  0
  6  7  2  0
  7  8  1  0
  8  9  1  0
  8 10  2  0
 10 11  1  0
 11 12  1  0
 12 13  2  0
 13 14  1  0
 13 15  1  0
 15 16  1  0
 16 17  1  0
 17 18  2  0
 17 19  1  0
  7 20  1  0
 20 21  2  0
 20 22  1  0
 22 23  1  0
 10  3  1  0
 23  6  1  0
M  END
$$$$
