
     RDKit          3D

 35 39  0  0  0  0  0  0  0  0999 V2000
  -28.7430   22.8667  -25.6484 C   0  0  0  0  0  0  0  0  0  0  0  0
  -29.1424   22.4422  -27.0235 C   0  0  0  0  0  0  0  0  0  0  0  0
  -29.3113   20.9344  -27.1143 C   0  0  0  0  0  0  0  0  0  0  0  0
  -29.6965   20.5040  -28.5059 C   0  0  0  0  0  0  0  0  0  0  0  0
  -30.8896   19.7134  -28.5591 N   0  0  0  0  0  0  0  0  0  0  0  0
  -31.0334   18.5198  -27.8015 C   0  0  0  0  0  0  0  0  0  0  0  0
  -32.1479   17.7694  -27.8398 N   0  0  0  0  0  0  0  0  0  0  0  0
  -32.3094   16.6358  -27.1335 C   0  0  0  0  0  0  0  0  0  0  0  0
  -31.2869   16.2037  -26.3199 C   0  0  0  0  0  0  0  0  0  0  0  0
  -31.1371   15.1272  -25.4969 C   0  0  0  0  0  0  0  0  0  0  0  0
  -32.0797   14.0503  -25.2225 C   0  0  0  0  0  0  0  0  0  0  0  0
  -31.9938   13.3546  -24.0402 C   0  0  0  0  0  0  0  0  0  0  0  0
  -32.8564   12.3224  -23.7193 C   0  0  0  0  0  0  0  0  0  0  0  0
  -33.8658   11.9509  -24.6152 C   0  0  0  0  0  0  0  0  0  0  0  0
  -34.8002   10.8379  -24.2763 C   0  0  0  0  0  0  0  0  0  0  0  0
  -36.0211   11.3664  -23.7500 N   0  0  0  0  0  0  0  0  0  0  0  0
  -36.2784   11.0564  -22.3749 C   0  0  0  0  0  0  0  0  0  0  0  0
  -37.7602   11.2465  -22.0900 C   0  0  0  0  0  0  0  0  0  0  0  0
  -38.3111   12.0799  -23.1137 N   0  0  0  0  0  0  0  0  0  0  0  0
  -38.6325   11.3982  -24.3303 C   0  0  0  0  0  0  0  0  0  0  0  0
  -37.4724   13.2197  -23.3505 C   0  0  0  0  0  0  0  0  0  0  0  0
  -36.1480   12.8058  -23.9429 C   0  0  0  0  0  0  0  0  0  0  0  0
  -33.9595   12.6424  -25.8022 C   0  0  0  0  0  0  0  0  0  0  0  0
  -33.0756   13.6803  -26.1012 C   0  0  0  0  0  0  0  0  0  0  0  0
  -29.8779   15.2431  -24.9452 C   0  0  0  0  0  0  0  0  0  0  0  0
  -29.2965   16.3548  -25.4256 N   0  0  0  0  0  0  0  0  0  0  0  0
  -27.9713   16.8431  -25.1000 C   0  0  1  0  0  0  0  0  0  0  0  0
  -27.7266   16.8990  -23.6086 C   0  0  0  0  0  0  0  0  0  0  0  0
  -26.5364   17.8120  -23.4039 C   0  0  0  0  0  0  0  0  0  0  0  0
  -25.3700   17.2867  -24.1642 C   0  0  2  0  0  0  0  0  0  0  0  0
  -24.8182   18.2940  -24.9893 O   0  0  0  0  0  0  0  0  0  0  0  0
  -25.6055   16.0307  -24.9204 C   0  0  0  0  0  0  0  0  0  0  0  0
  -26.8750   16.0172  -25.7253 C   0  0  0  0  0  0  0  0  0  0  0  0
  -30.1522   16.9479  -26.2671 C   0  0  0  0  0  0  0  0  0  0  0  0
  -30.0348   18.0835  -26.9971 N   0  0  0  0  0  0  0  0  0  0  0  0
  1  2  1  0
  2  3  1  0
  3  4  1  0
  4  5  1  0
  5  6  1  0
  6  7  2  0
  7  8  1  0
  8  9  2  0
  9 10  1  0
 10 11  1  0
 11 12  2  0
 12 13  1  0
 13 14  2  0
 14 15  1  0
 15 16  1  0
 16 17  1  0
 17 18  1  0
 18 19  1  0
 19 20  1  0
 19 21  1  0
 21 22  1  0
 14 23  1  0
 23 24  2  0
 10 25  2  0
 25 26  1  0
 27 26  1  1
 27 28  1  0
 28 29  1  0
 29 30  1  0
 30 31  1  6
 30 32  1  0
 32 33  1  0
 26 34  1  0
 34 35  2  0
 35  6  1  0
 34  9  1  0
 24 11  1  0
 33 27  1  0
 22 16  1  0
M  END
$$$$
