
     RDKit          3D

 29 31  0  0  0  0  0  0  0  0999 V2000
  -22.7706   23.6178  -36.9330 C   0  0  0  0  0  0  0  0  0  0  0  0
  -21.7539   23.0402  -35.9926 C   0  0  0  0  0  0  0  0  0  0  0  0
  -20.6043   22.3747  -36.6908 C   0  0  0  0  0  0  0  0  0  0  0  0
  -20.8557   20.9739  -37.0086 N   0  0  0  0  0  0  0  0  0  0  0  0
  -20.7203   20.0213  -36.1131 N   0  0  0  0  0  0  0  0  0  0  0  0
  -20.9361   18.6948  -36.3620 C   0  0  0  0  0  0  0  0  0  0  0  0
  -20.7342   17.7235  -35.2768 C   0  0  0  0  0  0  0  0  0  0  0  0
  -21.1744   16.5255  -35.4275 O   0  0  0  0  0  0  0  0  0  0  0  0
  -20.0758   17.9999  -34.0616 N   0  0  0  0  0  0  0  0  0  0  0  0
  -18.6417   17.8751  -33.8924 C   0  0  0  0  0  0  0  0  0  0  0  0
  -18.2017   16.4499  -34.0918 C   0  0  0  0  0  0  0  0  0  0  0  0
  -17.3844   15.9919  -32.9303 C   0  0  0  0  0  0  0  0  0  0  0  0
  -18.0135   15.8609  -31.7053 C   0  0  0  0  0  0  0  0  0  0  0  0
  -17.2478   15.4393  -30.6501 C   0  0  0  0  0  0  0  0  0  0  0  0
  -15.9002   15.1431  -30.7469 C   0  0  0  0  0  0  0  0  0  0  0  0
  -15.0020   14.6087  -29.3346 S   0  0  0  0  0  6  0  0  0  0  0  0
  -14.6558   15.9322  -28.2803 N   0  0  0  0  0  0  0  0  0  0  0  0
  -13.6924   13.9803  -29.7731 O   0  0  0  0  0  0  0  0  0  0  0  0
  -15.8059   13.5965  -28.5487 O   0  0  0  0  0  0  0  0  0  0  0  0
  -15.3064   15.2843  -31.9803 C   0  0  0  0  0  0  0  0  0  0  0  0
  -16.0506   15.7122  -33.0851 C   0  0  0  0  0  0  0  0  0  0  0  0
  -21.3151   18.3400  -37.6329 C   0  0  0  0  0  0  0  0  0  0  0  0
  -21.5188   17.0236  -37.9860 C   0  0  0  0  0  0  0  0  0  0  0  0
  -21.8738   16.7248  -39.2937 C   0  0  0  0  0  0  0  0  0  0  0  0
  -22.0191   17.7252  -40.2254 C   0  0  0  0  0  0  0  0  0  0  0  0
  -21.8082   19.0496  -39.8601 C   0  0  0  0  0  0  0  0  0  0  0  0
  -21.4570   19.3519  -38.5719 C   0  0  0  0  0  0  0  0  0  0  0  0
  -21.2258   20.6861  -38.2589 C   0  0  0  0  0  0  0  0  0  0  0  0
  -21.3610   21.5943  -39.1231 O   0  0  0  0  0  0  0  0  0  0  0  0
  1  2  1  0
  2  3  1  0
  3  4  1  0
  4  5  1  0
  5  6  2  0
  6  7  1  0
  7  8  2  0
  7  9  1  0
  9 10  1  0
 10 11  1  0
 11 12  1  0
 12 13  2  0
 13 14  1  0
 14 15  2  0
 15 16  1  0
 16 17  1  0
 16 18  2  0
 16 19  2  0
 15 20  1  0
 20 21  2  0
  6 22  1  0
 22 23  2  0
 23 24  1  0
 24 25  2  0
 25 26  1  0
 26 27  2  0
 27 28  1  0
 28 29  2  0
 28  4  1  0
 21 12  1  0
 27 22  1  0
M  END
$$$$
