
     RDKit          3D

 41 46  0  0  0  0  0  0  0  0999 V2000
  -26.1040   18.3635  -37.8242 C   0  0  0  0  0  0  0  0  0  0  0  0
  -24.8736   18.1242  -37.0364 C   0  0  0  0  0  0  0  0  0  0  0  0
  -24.2037   19.2149  -36.5176 C   0  0  0  0  0  0  0  0  0  0  0  0
  -23.0790   19.0182  -35.7958 C   0  0  0  0  0  0  0  0  0  0  0  0
  -22.5791   17.7295  -35.5635 C   0  0  0  0  0  0  0  0  0  0  0  0
  -21.3507   17.6176  -34.7675 C   0  0  0  0  0  0  0  0  0  0  0  0
  -20.8666   18.6958  -34.2596 O   0  0  0  0  0  0  0  0  0  0  0  0
  -20.6460   16.4392  -34.5035 N   0  0  0  0  0  0  0  0  0  0  0  0
  -19.3792   16.3148  -33.8310 C   0  0  0  0  0  0  0  0  0  0  0  0
  -18.9682   17.0121  -32.7596 C   0  0  0  0  0  0  0  0  0  0  0  0
  -17.7449   16.8456  -32.1632 C   0  0  0  0  0  0  0  0  0  0  0  0
  -16.8388   15.9327  -32.6353 C   0  0  0  0  0  0  0  0  0  0  0  0
  -15.6353   15.7031  -32.1297 O   0  0  0  0  0  0  0  0  0  0  0  0
  -14.9560   15.1935  -31.1260 C   0  0  0  0  0  0  0  0  0  0  0  0
  -15.4284   14.3382  -30.1224 C   0  0  0  0  0  0  0  0  0  0  0  0
  -14.6338   13.8534  -29.1043 C   0  0  0  0  0  0  0  0  0  0  0  0
  -14.8462   13.0216  -28.0240 C   0  0  0  0  0  0  0  0  0  0  0  0
  -13.6719   12.9314  -27.3996 N   0  0  0  0  0  0  0  0  0  0  0  0
  -12.7409   13.6323  -27.9913 N   0  0  0  0  0  0  0  0  0  0  0  0
  -11.3382   13.7695  -27.5901 C   0  0  0  0  0  0  0  0  0  0  0  0
  -13.3128   14.2282  -29.0720 C   0  0  0  0  0  0  0  0  0  0  0  0
  -12.8045   15.0639  -30.0328 C   0  0  0  0  0  0  0  0  0  0  0  0
  -13.5798   15.5465  -31.0411 C   0  0  0  0  0  0  0  0  0  0  0  0
  -13.0166   16.4128  -32.0746 C   0  0  0  0  0  0  0  0  0  0  0  0
  -13.6421   17.5706  -32.5006 C   0  0  0  0  0  0  0  0  0  0  0  0
  -12.8510   18.1277  -33.4284 N   0  0  0  0  0  0  0  0  0  0  0  0
  -11.7704   17.3994  -33.6151 N   0  0  0  0  0  0  0  0  0  0  0  0
  -11.8611   16.3464  -32.7911 C   0  0  0  0  0  0  0  0  0  0  0  0
  -17.2491   15.1749  -33.7764 C   0  0  0  0  0  0  0  0  0  0  0  0
  -16.3667   14.2673  -34.2738 F   0  0  0  0  0  0  0  0  0  0  0  0
  -18.4660   15.3718  -34.3328 C   0  0  0  0  0  0  0  0  0  0  0  0
  -23.2903   16.7081  -36.1042 C   0  0  0  0  0  0  0  0  0  0  0  0
  -22.9111   15.5273  -35.9429 O   0  0  0  0  0  0  0  0  0  0  0  0
  -24.4355   16.8806  -36.8412 N   0  0  0  0  0  0  0  0  0  0  0  0
  -25.1043   15.7293  -37.3638 C   0  0  0  0  0  0  0  0  0  0  0  0
  -26.0894   15.0761  -36.6536 C   0  0  0  0  0  0  0  0  0  0  0  0
  -26.7561   13.9647  -37.1229 C   0  0  0  0  0  0  0  0  0  0  0  0
  -26.4036   13.4961  -38.3737 C   0  0  0  0  0  0  0  0  0  0  0  0
  -27.0571   12.4056  -38.8353 F   0  0  0  0  0  0  0  0  0  0  0  0
  -25.4141   14.1453  -39.0968 C   0  0  0  0  0  0  0  0  0  0  0  0
  -24.7576   15.2557  -38.6121 C   0  0  0  0  0  0  0  0  0  0  0  0
  1  2  1  0
  2  3  2  0
  3  4  1  0
  4  5  2  0
  5  6  1  0
  6  7  2  0
  6  8  1  0
  8  9  1  0
  9 10  2  0
 10 11  1  0
 11 12  2  0
 12 13  1  0
 13 14  1  0
 14 15  2  0
 15 16  1  0
 16 17  1  0
 17 18  2  0
 18 19  1  0
 19 20  1  0
 19 21  1  0
 21 22  1  0
 22 23  2  0
 23 24  1  0
 24 25  1  0
 25 26  2  0
 26 27  1  0
 27 28  1  0
 12 29  1  0
 29 30  1  0
 29 31  2  0
  5 32  1  0
 32 33  2  0
 32 34  1  0
 34 35  1  0
 35 36  2  0
 36 37  1  0
 37 38  2  0
 38 39  1  0
 38 40  1  0
 40 41  2  0
 34  2  1  0
 41 35  1  0
 31  9  1  0
 23 14  1  0
 28 24  2  0
 21 16  2  0
M  END
$$$$
