
     RDKit          3D

 20 20  0  0  0  0  0  0  0  0999 V2000
  -18.0013   31.0877  -21.5051 C   0  0  0  0  0  0  0  0  0  0  0  0
  -17.4339   32.2328  -22.1773 N   0  0  0  0  0  0  0  0  0  0  0  0
  -16.1231   32.5083  -21.6016 C   0  0  0  0  0  0  0  0  0  0  0  0
  -18.3113   33.3660  -22.0222 C   0  0  0  0  0  0  0  0  0  0  0  0
  -17.7601   34.5883  -22.7086 C   0  0  0  0  0  0  0  0  0  0  0  0
  -18.6230   35.6675  -22.5453 O   0  0  0  0  0  0  0  0  0  0  0  0
  -18.1579   36.8162  -23.1609 C   0  0  0  0  0  0  0  0  0  0  0  0
  -17.9214   37.8979  -22.1583 C   0  0  0  0  0  0  0  0  0  0  0  0
  -18.8262   38.1886  -21.1579 C   0  0  0  0  0  0  0  0  0  0  0  0
  -18.5848   39.2035  -20.2319 C   0  0  0  0  0  0  0  0  0  0  0  0
  -17.4127   39.9466  -20.3051 C   0  0  0  0  0  0  0  0  0  0  0  0
  -16.5133   39.6572  -21.2998 C   0  0  0  0  0  0  0  0  0  0  0  0
  -16.7714   38.6601  -22.1938 C   0  0  0  0  0  0  0  0  0  0  0  0
  -19.0476   37.2872  -24.2576 C   0  0  0  0  0  0  0  0  0  0  0  0
  -19.4044   38.6023  -24.4157 C   0  0  0  0  0  0  0  0  0  0  0  0
  -20.2354   38.9803  -25.4549 C   0  0  0  0  0  0  0  0  0  0  0  0
  -20.7282   38.0590  -26.3573 C   0  0  0  0  0  0  0  0  0  0  0  0
  -20.3762   36.7441  -26.2055 C   0  0  0  0  0  0  0  0  0  0  0  0
  -19.5355   36.3600  -25.1547 C   0  0  0  0  0  0  0  0  0  0  0  0
  -18.0903   35.4431  -22.5505 Cl  0  0  0  0  0  0  0  0  0  0  0  0
  1  2  1  0
  2  3  1  0
  2  4  1  0
  4  5  1  0
  5  6  1  0
  6  7  1  0
  7  8  1  0
  8  9  2  0
  9 10  1  0
 10 11  2  0
 11 12  1  0
 12 13  2  0
  7 14  1  0
 14 15  2  0
 15 16  1  0
 16 17  2  0
 17 18  1  0
 18 19  2  0
 13  8  1  0
 19 14  1  0
M  END
$$$$
