
     RDKit          3D

 17 17  0  0  0  0  0  0  0  0999 V2000
  -18.3466   35.9011  -22.2239 Cl  0  0  0  0  0  0  0  0  0  0  0  0
  -20.1520   39.0418  -22.9711 N   0  0  0  0  0  0  0  0  0  0  0  0
  -19.0582   38.8164  -22.3583 C   0  0  0  0  0  0  0  0  0  0  0  0
  -18.4601   39.6895  -21.2903 C   0  0  0  0  0  0  0  0  0  0  0  0
  -17.0017   39.3312  -21.3884 C   0  0  0  0  0  0  0  0  0  0  0  0
  -17.0892   37.8221  -21.6354 C   0  0  0  0  0  0  0  0  0  0  0  0
  -18.2004   37.7141  -22.5580 N   0  0  0  0  0  0  0  0  0  0  0  0
  -18.3792   36.6581  -23.5140 C   0  0  0  0  0  0  0  0  0  0  0  0
  -18.4435   35.3191  -22.8724 C   0  0  0  0  0  0  0  0  0  0  0  0
  -17.4042   34.4678  -22.8973 N   0  0  0  0  0  0  0  0  0  0  0  0
  -17.4309   33.2455  -22.3228 C   0  0  0  0  0  0  0  0  0  0  0  0
  -16.4300   32.4707  -22.3674 O   0  0  0  0  0  0  0  0  0  0  0  0
  -18.5479   32.8544  -21.6935 N   0  0  0  0  0  0  0  0  0  0  0  0
  -19.6316   33.6354  -21.6184 C   0  0  0  0  0  0  0  0  0  0  0  0
  -20.6502   33.2270  -21.0208 O   0  0  0  0  0  0  0  0  0  0  0  0
  -19.5740   34.8764  -22.2142 C   0  0  0  0  0  0  0  0  0  0  0  0
  -21.0022   35.8770  -22.1037 Cl  0  0  0  0  0  0  0  0  0  0  0  0
  2  3  2  0
  3  4  1  0
  4  5  1  0
  5  6  1  0
  6  7  1  0
  7  8  1  0
  8  9  1  0
  9 10  1  0
 10 11  1  0
 11 12  2  0
 11 13  1  0
 13 14  1  0
 14 15  2  0
 14 16  1  0
 16 17  1  0
  7  3  1  0
 16  9  2  0
M  END
$$$$
