
     RDKit          3D

 18 19  0  0  0  0  0  0  0  0999 V2000
  -20.0464   49.1669  -19.7147 N   0  0  0  0  0  0  0  0  0  0  0  0
  -19.8261   47.9200  -18.5691 S   0  0  0  0  0  6  0  0  0  0  0  0
  -18.7970   48.3376  -17.5339 O   0  0  0  0  0  0  0  0  0  0  0  0
  -21.1150   47.5992  -17.8594 O   0  0  0  0  0  0  0  0  0  0  0  0
  -19.2741   46.4782  -19.3585 C   0  0  0  0  0  0  0  0  0  0  0  0
  -20.1322   45.4177  -19.4692 C   0  0  0  0  0  0  0  0  0  0  0  0
  -19.6603   44.2774  -20.1068 C   0  0  0  0  0  0  0  0  0  0  0  0
  -18.3906   44.1539  -20.6282 C   0  0  0  0  0  0  0  0  0  0  0  0
  -17.8486   43.0945  -21.2562 O   0  0  0  0  0  0  0  0  0  0  0  0
  -16.8306   42.2294  -20.9854 C   0  0  0  0  0  0  0  0  0  0  0  0
  -17.1022   40.7859  -21.2182 C   0  0  0  0  0  0  0  0  0  0  0  0
  -17.6047   40.0448  -20.1350 C   0  0  0  0  0  0  0  0  0  0  0  0
  -17.8598   38.6980  -20.2282 C   0  0  0  0  0  0  0  0  0  0  0  0
  -17.6139   38.0543  -21.4249 C   0  0  0  0  0  0  0  0  0  0  0  0
  -17.1214   38.7620  -22.4984 C   0  0  0  0  0  0  0  0  0  0  0  0
  -16.8695   40.1150  -22.3903 C   0  0  0  0  0  0  0  0  0  0  0  0
  -17.5538   45.2905  -20.4790 C   0  0  0  0  0  0  0  0  0  0  0  0
  -17.9855   46.4187  -19.8617 C   0  0  0  0  0  0  0  0  0  0  0  0
  1  2  1  0
  2  3  2  0
  2  4  2  0
  2  5  1  0
  5  6  2  0
  6  7  1  0
  7  8  2  0
  8  9  1  0
  9 10  1  0
 10 11  1  0
 11 12  2  0
 12 13  1  0
 13 14  2  0
 14 15  1  0
 15 16  2  0
  8 17  1  0
 17 18  2  0
 18  5  1  0
 16 11  1  0
M  END
$$$$
