
     RDKit          3D

 33 38  0  0  0  0  0  0  0  0999 V2000
  -18.9935   22.5275  -32.8711 N   0  0  0  0  0  0  0  0  0  0  0  0
  -20.1323   22.0046  -32.1892 C   0  0  0  0  0  0  0  0  0  0  0  0
  -21.2070   22.8410  -32.0832 N   0  0  0  0  0  0  0  0  0  0  0  0
  -22.3393   22.4962  -31.4760 C   0  0  0  0  0  0  0  0  0  0  0  0
  -22.4269   21.2388  -30.9315 C   0  0  0  0  0  0  0  0  0  0  0  0
  -21.3272   20.3740  -31.0364 C   0  0  0  0  0  0  0  0  0  0  0  0
  -20.1746   20.7355  -31.6588 C   0  0  0  0  0  0  0  0  0  0  0  0
  -19.0197   19.8686  -31.7856 C   0  0  0  0  0  0  0  0  0  0  0  0
  -17.9407   20.0113  -30.9371 N   0  0  0  0  0  0  0  0  0  0  0  0
  -17.0006   19.1127  -31.2362 C   0  0  0  0  0  0  0  0  0  0  0  0
  -15.7634   18.8487  -30.6973 C   0  0  0  0  0  0  0  0  0  0  0  0
  -15.0395   17.8226  -31.2670 C   0  0  0  0  0  0  0  0  0  0  0  0
  -15.5382   17.0999  -32.3259 C   0  0  0  0  0  0  0  0  0  0  0  0
  -14.8155   16.0080  -32.9631 C   0  0  0  0  0  0  0  0  0  0  0  0
  -15.4158   15.2744  -33.9781 C   0  0  0  0  0  0  0  0  0  0  0  0
  -14.7498   14.2391  -34.5927 C   0  0  0  0  0  0  0  0  0  0  0  0
  -13.4700   13.9000  -34.2202 C   0  0  0  0  0  0  0  0  0  0  0  0
  -12.8629   14.6146  -33.2194 C   0  0  0  0  0  0  0  0  0  0  0  0
  -13.5337   15.6568  -32.6008 C   0  0  0  0  0  0  0  0  0  0  0  0
  -16.7652   17.4234  -32.7976 N   0  0  0  0  0  0  0  0  0  0  0  0
  -17.5192   18.4044  -32.2935 C   0  0  0  0  0  0  0  0  0  0  0  0
  -18.7488   18.8719  -32.6207 N   0  0  0  0  0  0  0  0  0  0  0  0
  -19.5450   18.3464  -33.6733 C   0  0  0  0  0  0  0  0  0  0  0  0
  -19.2951   18.6887  -35.0091 C   0  0  0  0  0  0  0  0  0  0  0  0
  -20.0676   18.2098  -36.0219 C   0  0  0  0  0  0  0  0  0  0  0  0
  -21.1469   17.3553  -35.7902 C   0  0  0  0  0  0  0  0  0  0  0  0
  -21.9023   16.9070  -36.9614 C   0  0  0  0  0  0  0  0  0  0  0  0
  -22.2422   17.9703  -37.9026 N   0  0  0  0  0  0  0  0  0  0  0  0
  -21.5043   15.6418  -37.6307 C   0  0  0  0  0  0  0  0  0  0  0  0
  -22.9847   15.2538  -37.6530 C   0  0  0  0  0  0  0  0  0  0  0  0
  -23.2121   16.2394  -36.5203 C   0  0  0  0  0  0  0  0  0  0  0  0
  -21.3884   17.0235  -34.4906 C   0  0  0  0  0  0  0  0  0  0  0  0
  -20.6132   17.5017  -33.4537 C   0  0  0  0  0  0  0  0  0  0  0  0
  1  2  1  0
  2  3  2  0
  3  4  1  0
  4  5  2  0
  5  6  1  0
  6  7  2  0
  7  8  1  0
  8  9  2  0
  9 10  1  0
 10 11  2  0
 11 12  1  0
 12 13  2  0
 13 14  1  0
 14 15  2  0
 15 16  1  0
 16 17  2  0
 17 18  1  0
 18 19  2  0
 13 20  1  0
 20 21  2  0
 21 22  1  0
 22 23  1  0
 23 24  2  0
 24 25  1  0
 25 26  2  0
 26 27  1  0
 27 28  1  0
 27 29  1  0
 29 30  1  0
 30 31  1  0
 26 32  1  0
 32 33  2  0
  7  2  1  0
 22  8  1  0
 33 23  1  0
 21 10  1  0
 31 27  1  0
 19 14  1  0
M  END
$$$$
