
     RDKit          3D

 34 38  0  0  0  0  0  0  0  0999 V2000
  -32.2322   19.9303  -27.7465 C   0  0  0  0  0  0  0  0  0  0  0  0
  -31.1579   19.0776  -27.4359 O   0  0  0  0  0  0  0  0  0  0  0  0
  -29.8686   19.4809  -27.7189 C   0  0  0  0  0  0  0  0  0  0  0  0
  -28.8154   19.0545  -26.9434 C   0  0  0  0  0  0  0  0  0  0  0  0
  -27.5312   19.4715  -27.2466 C   0  0  0  0  0  0  0  0  0  0  0  0
  -27.2377   20.3136  -28.3116 C   0  0  0  0  0  0  0  0  0  0  0  0
  -25.8165   20.7265  -28.5817 C   0  0  0  0  0  0  0  0  0  0  0  0
  -25.0952   19.6235  -29.3220 C   0  0  0  0  0  0  0  0  0  0  0  0
  -23.7646   19.8756  -29.6276 N   0  0  0  0  0  0  0  0  0  0  0  0
  -22.7419   19.5698  -28.6966 C   0  0  0  0  0  0  0  0  0  0  0  0
  -21.3977   19.3489  -29.4224 C   0  0  0  0  0  0  0  0  0  0  0  0
  -21.6083   18.6250  -30.6866 C   0  0  0  0  0  0  0  0  0  0  0  0
  -20.5981   17.9660  -31.3674 N   0  0  0  0  0  0  0  0  0  0  0  0
  -19.3321   18.2896  -31.8873 C   0  0  0  0  0  0  0  0  0  0  0  0
  -18.3528   18.8698  -31.0781 N   0  0  0  0  0  0  0  0  0  0  0  0
  -17.2402   19.0570  -31.7707 C   0  0  0  0  0  0  0  0  0  0  0  0
  -15.9827   19.5760  -31.4991 C   0  0  0  0  0  0  0  0  0  0  0  0
  -15.0002   19.6384  -32.4616 C   0  0  0  0  0  0  0  0  0  0  0  0
  -15.2623   19.1757  -33.7322 C   0  0  0  0  0  0  0  0  0  0  0  0
  -16.5077   18.6552  -34.0234 C   0  0  0  0  0  0  0  0  0  0  0  0
  -17.4718   18.6021  -33.0501 C   0  0  0  0  0  0  0  0  0  0  0  0
  -18.7721   18.1476  -33.0537 N   0  0  0  0  0  0  0  0  0  0  0  0
  -19.3093   17.6052  -34.2801 C   0  0  0  0  0  0  0  0  0  0  0  0
  -19.2316   16.1180  -34.2928 C   0  0  0  0  0  0  0  0  0  0  0  0
  -19.3672   15.3431  -33.1836 C   0  0  0  0  0  0  0  0  0  0  0  0
  -19.2709   13.9618  -33.2026 C   0  0  0  0  0  0  0  0  0  0  0  0
  -19.0266   13.3286  -34.3990 C   0  0  0  0  0  0  0  0  0  0  0  0
  -18.9159   11.9872  -34.5145 F   0  0  0  0  0  0  0  0  0  0  0  0
  -18.8827   14.0824  -35.5556 C   0  0  0  0  0  0  0  0  0  0  0  0
  -18.9847   15.4594  -35.4986 C   0  0  0  0  0  0  0  0  0  0  0  0
  -22.4427   19.4646  -31.6464 C   0  0  0  0  0  0  0  0  0  0  0  0
  -23.3654   20.3452  -30.8823 C   0  0  0  0  0  0  0  0  0  0  0  0
  -28.2969   20.7369  -29.0841 C   0  0  0  0  0  0  0  0  0  0  0  0
  -29.5954   20.3274  -28.7934 C   0  0  0  0  0  0  0  0  0  0  0  0
  1  2  1  0
  2  3  1  0
  3  4  2  0
  4  5  1  0
  5  6  2  0
  6  7  1  0
  7  8  1  0
  8  9  1  0
  9 10  1  0
 10 11  1  0
 11 12  1  0
 12 13  1  0
 13 14  1  0
 14 15  2  0
 15 16  1  0
 16 17  2  0
 17 18  1  0
 18 19  2  0
 19 20  1  0
 20 21  2  0
 21 22  1  0
 22 23  1  0
 23 24  1  0
 24 25  2  0
 25 26  1  0
 26 27  2  0
 27 28  1  0
 27 29  1  0
 29 30  2  0
 12 31  1  0
 31 32  1  0
  6 33  1  0
 33 34  2  0
 34  3  1  0
 32  9  1  0
 22 14  1  0
 30 24  1  0
 21 16  1  0
M  END
$$$$
