
     RDKit          3D

 21 23  0  0  0  0  0  0  0  0999 V2000
  -15.7426   -3.6211  -32.0910 C   0  0  0  0  0  0  0  0  0  0  0  0
  -15.4194   -2.2067  -32.0776 N   0  0  0  0  0  0  0  0  0  0  0  0
  -14.1958   -1.6379  -31.9736 C   0  0  0  0  0  0  0  0  0  0  0  0
  -12.9359   -2.3899  -31.8544 C   0  0  0  0  0  0  0  0  0  0  0  0
  -12.3887   -2.6247  -33.1387 O   0  0  0  0  0  0  0  0  0  0  0  0
  -14.3309   -0.2734  -32.0002 C   0  0  0  0  0  0  0  0  0  0  0  0
  -13.2479    0.6900  -31.9169 C   0  0  0  0  0  0  0  0  0  0  0  0
  -12.2795    0.8208  -32.9095 C   0  0  0  0  0  0  0  0  0  0  0  0
  -11.2417    1.7422  -32.8259 C   0  0  0  0  0  0  0  0  0  0  0  0
  -11.1589    2.5668  -31.7165 C   0  0  0  0  0  0  0  0  0  0  0  0
  -12.1046    2.4483  -30.7342 C   0  0  0  0  0  0  0  0  0  0  0  0
  -13.1127    1.5416  -30.8326 C   0  0  0  0  0  0  0  0  0  0  0  0
  -15.6882   -0.0221  -32.1245 C   0  0  0  0  0  0  0  0  0  0  0  0
  -16.3649    1.1773  -32.1963 C   0  0  0  0  0  0  0  0  0  0  0  0
  -17.7560    1.1707  -32.3191 C   0  0  0  0  0  0  0  0  0  0  0  0
  -18.4867    2.3874  -32.3917 N   0  0  0  0  0  4  0  0  0  0  0  0
  -19.7354    2.3953  -32.5291 O   0  0  0  0  0  0  0  0  0  0  0  0
  -17.8163    3.5783  -32.3079 O   0  0  0  0  0  1  0  0  0  0  0  0
  -18.4439   -0.0185  -32.3683 C   0  0  0  0  0  0  0  0  0  0  0  0
  -17.7235   -1.1952  -32.2936 C   0  0  0  0  0  0  0  0  0  0  0  0
  -16.3519   -1.2378  -32.1713 C   0  0  0  0  0  0  0  0  0  0  0  0
  1  2  1  0
  2  3  1  0
  3  4  1  0
  4  5  1  0
  3  6  2  0
  6  7  1  0
  7  8  2  0
  8  9  1  0
  9 10  2  0
 10 11  1  0
 11 12  2  0
  6 13  1  0
 13 14  2  0
 14 15  1  0
 15 16  1  0
 16 17  2  0
 16 18  1  0
 15 19  2  0
 19 20  1  0
 20 21  2  0
 21  2  1  0
 12  7  1  0
 21 13  1  0
M  CHG  2  16   1  18  -1
M  END
$$$$
