
     RDKit          3D

 33 36  0  0  0  0  0  0  0  0999 V2000
  -22.2303   15.5121  -32.4562 C   0  0  0  0  0  0  0  0  0  0  0  0
  -21.9258   16.6771  -33.3629 C   0  0  1  0  0  0  0  0  0  0  0  0
  -23.0457   16.7884  -34.2809 N   0  0  0  0  0  0  0  0  0  0  0  0
  -22.8156   17.0654  -35.6525 C   0  0  0  0  0  0  0  0  0  0  0  0
  -23.8827   17.0560  -36.5568 C   0  0  0  0  0  0  0  0  0  0  0  0
  -23.7230   17.2915  -37.8988 C   0  0  0  0  0  0  0  0  0  0  0  0
  -24.8016   17.2725  -38.7513 F   0  0  0  0  0  0  0  0  0  0  0  0
  -22.4669   17.5534  -38.4132 C   0  0  0  0  0  0  0  0  0  0  0  0
  -21.4070   17.5698  -37.5484 C   0  0  0  0  0  0  0  0  0  0  0  0
  -20.1711   17.8293  -38.0627 F   0  0  0  0  0  0  0  0  0  0  0  0
  -21.5717   17.3284  -36.1789 C   0  0  0  0  0  0  0  0  0  0  0  0
  -21.7722   17.9507  -32.6142 C   0  0  0  0  0  0  0  0  0  0  0  0
  -22.8642   18.7674  -32.4447 C   0  0  0  0  0  0  0  0  0  0  0  0
  -22.7337   19.9577  -31.7764 C   0  0  0  0  0  0  0  0  0  0  0  0
  -23.8381   20.8850  -31.5764 C   0  0  0  0  0  0  0  0  0  0  0  0
  -24.9915   20.4560  -31.2544 O   0  0  0  0  0  0  0  0  0  0  0  0
  -23.6786   22.2741  -31.7330 N   0  0  0  0  0  0  0  0  0  0  0  0
  -22.3737   22.9197  -31.8199 C   0  0  0  0  0  0  0  0  0  0  0  0
  -24.8740   23.1221  -31.8160 C   0  0  0  0  0  0  0  0  0  0  0  0
  -21.4798   20.3155  -31.2770 C   0  0  0  0  0  0  0  0  0  0  0  0
  -20.3686   19.5264  -31.4264 C   0  0  0  0  0  0  0  0  0  0  0  0
  -19.1324   19.8767  -30.9329 C   0  0  0  0  0  0  0  0  0  0  0  0
  -18.9921   20.9749  -30.3106 O   0  0  0  0  0  0  0  0  0  0  0  0
  -18.0442   19.0512  -31.1053 C   0  0  0  0  0  0  0  0  0  0  0  0
  -18.2706   17.8619  -31.7990 C   0  0  0  0  0  0  0  0  0  0  0  0
  -17.2301   16.9446  -32.0314 N   0  0  0  0  0  0  0  0  0  0  0  0
  -17.5411   15.6941  -32.6969 C   0  0  0  0  0  0  0  0  0  0  0  0
  -17.1975   14.6198  -31.6542 C   0  0  0  0  0  0  0  0  0  0  0  0
  -15.8667   14.7773  -31.3557 O   0  0  0  0  0  0  0  0  0  0  0  0
  -15.5733   15.9454  -30.6956 C   0  0  0  0  0  0  0  0  0  0  0  0
  -15.8635   17.1237  -31.6440 C   0  0  0  0  0  0  0  0  0  0  0  0
  -19.4696   17.5947  -32.2392 O   0  0  0  0  0  0  0  0  0  0  0  0
  -20.5408   18.3162  -32.1165 C   0  0  0  0  0  0  0  0  0  0  0  0
  2  1  1  1
  2  3  1  0
  3  4  1  0
  4  5  2  0
  5  6  1  0
  6  7  1  0
  6  8  2  0
  8  9  1  0
  9 10  1  0
  9 11  2  0
  2 12  1  0
 12 13  2  0
 13 14  1  0
 14 15  1  0
 15 16  2  0
 15 17  1  0
 17 18  1  0
 17 19  1  0
 14 20  2  0
 20 21  1  0
 21 22  1  0
 22 23  2  0
 22 24  1  0
 24 25  2  0
 25 26  1  0
 26 27  1  0
 27 28  1  0
 28 29  1  0
 29 30  1  0
 30 31  1  0
 25 32  1  0
 32 33  1  0
 11  4  1  0
 33 12  1  0
 33 21  2  0
 31 26  1  0
M  END
$$$$
