
     RDKit          3D

 24 26  0  0  0  0  0  0  0  0999 V2000
  -19.0378   30.8227  -23.8908 C   0  0  0  0  0  0  0  0  0  0  0  0
  -18.5612   31.5305  -22.6550 C   0  0  0  0  0  0  0  0  0  0  0  0
  -19.3514   31.0312  -21.4407 C   0  0  0  0  0  0  0  0  0  0  0  0
  -17.1164   31.1067  -22.4105 C   0  0  0  0  0  0  0  0  0  0  0  0
  -18.5755   32.9216  -22.7509 O   0  0  0  0  0  0  0  0  0  0  0  0
  -18.4220   33.7867  -21.6784 C   0  0  0  0  0  0  0  0  0  0  0  0
  -18.2955   33.2720  -20.5389 O   0  0  0  0  0  0  0  0  0  0  0  0
  -18.4072   35.2464  -21.8627 C   0  0  0  0  0  0  0  0  0  0  0  0
  -17.8599   36.0794  -20.9126 C   0  0  0  0  0  0  0  0  0  0  0  0
  -17.8694   37.4524  -21.1320 C   0  0  0  0  0  0  0  0  0  0  0  0
  -18.4113   38.0032  -22.2735 C   0  0  0  0  0  0  0  0  0  0  0  0
  -18.4075   39.4184  -22.4732 N   0  0  0  0  0  0  0  0  0  0  0  0
  -18.7347   40.0257  -23.6072 N   0  0  0  0  0  0  0  0  0  0  0  0
  -18.6380   41.3569  -23.4980 C   0  0  0  0  0  0  0  0  0  0  0  0
  -18.2217   41.5858  -22.2052 C   0  0  0  0  0  0  0  0  0  0  0  0
  -17.9729   42.8592  -21.6025 N   0  0  0  0  0  0  0  0  0  0  0  0
  -18.4637   44.0280  -22.0492 C   0  0  0  0  0  0  0  0  0  0  0  0
  -17.9762   44.9815  -21.1792 C   0  0  0  0  0  0  0  0  0  0  0  0
  -17.2182   44.3700  -20.2486 N   0  0  0  0  0  0  0  0  0  0  0  0
  -17.2366   43.0855  -20.5331 N   0  0  0  0  0  0  0  0  0  0  0  0
  -18.0854   40.3610  -21.5872 C   0  0  0  0  0  0  0  0  0  0  0  0
  -17.7226   40.1370  -20.3971 O   0  0  0  0  0  0  0  0  0  0  0  0
  -18.9383   37.1657  -23.1833 N   0  0  0  0  0  0  0  0  0  0  0  0
  -18.9422   35.8209  -22.9943 C   0  0  0  0  0  0  0  0  0  0  0  0
  1  2  1  0
  2  3  1  0
  2  4  1  0
  2  5  1  0
  5  6  1  0
  6  7  2  0
  6  8  1  0
  8  9  2  0
  9 10  1  0
 10 11  2  0
 11 12  1  0
 12 13  1  0
 13 14  1  0
 14 15  2  0
 15 16  1  0
 16 17  1  0
 17 18  2  0
 18 19  1  0
 19 20  2  0
 15 21  1  0
 21 22  2  0
 11 23  1  0
 23 24  2  0
 24  8  1  0
 21 12  1  0
 20 16  1  0
M  END
$$$$
