
     RDKit          3D

 40 44  0  0  0  0  0  0  0  0999 V2000
  -26.7989   24.0576  -34.1500 C   0  0  0  0  0  0  0  0  0  0  0  0
  -27.3288   23.9464  -32.7684 C   0  0  0  0  0  0  0  0  0  0  0  0
  -27.4626   22.7084  -32.1670 C   0  0  0  0  0  0  0  0  0  0  0  0
  -27.9442   22.5795  -30.9066 C   0  0  0  0  0  0  0  0  0  0  0  0
  -28.3261   23.7183  -30.1667 C   0  0  0  0  0  0  0  0  0  0  0  0
  -28.8349   23.5342  -28.8691 N   0  0  0  0  0  0  0  0  0  0  0  0
  -28.9438   22.3160  -28.1738 C   0  0  0  0  0  0  0  0  0  0  0  0
  -29.4437   22.2673  -26.9531 N   0  0  0  0  0  0  0  0  0  0  0  0
  -29.5686   21.1430  -26.2575 C   0  0  0  0  0  0  0  0  0  0  0  0
  -29.1635   19.9282  -26.8060 C   0  0  0  0  0  0  0  0  0  0  0  0
  -28.6449   19.9832  -28.0745 C   0  0  0  0  0  0  0  0  0  0  0  0
  -28.5440   21.1455  -28.7251 N   0  0  0  0  0  0  0  0  0  0  0  0
  -28.2141   18.7693  -28.7127 N   0  0  0  0  0  0  0  0  0  0  0  0
  -27.6648   18.8280  -30.0535 C   0  0  0  0  0  0  0  0  0  0  0  0
  -28.3541   17.5603  -27.9804 C   0  0  0  0  0  0  0  0  0  0  0  0
  -27.9820   16.4626  -28.5135 O   0  0  0  0  0  0  0  0  0  0  0  0
  -28.8913   17.4979  -26.6708 N   0  0  0  0  0  0  0  0  0  0  0  0
  -29.0048   16.2103  -26.0442 C   0  0  0  0  0  0  0  0  0  0  0  0
  -30.2059   15.5078  -26.0352 C   0  0  0  0  0  0  0  0  0  0  0  0
  -30.3457   14.2814  -25.4442 C   0  0  0  0  0  0  0  0  0  0  0  0
  -31.5248   13.5016  -25.3944 N   0  0  0  0  0  0  0  0  0  0  0  0
  -32.7627   13.8317  -24.8364 C   0  0  0  0  0  0  0  0  0  0  0  0
  -32.8848   14.9642  -24.3038 O   0  0  0  0  0  0  0  0  0  0  0  0
  -33.9382   12.9740  -24.8153 C   0  0  0  0  0  0  0  0  0  0  0  0
  -33.9761   11.7632  -25.4743 C   0  0  0  0  0  0  0  0  0  0  0  0
  -35.0832   10.9442  -25.4628 C   0  0  0  0  0  0  0  0  0  0  0  0
  -36.2145   11.3355  -24.7666 C   0  0  0  0  0  0  0  0  0  0  0  0
  -36.2060   12.5297  -24.1047 C   0  0  0  0  0  0  0  0  0  0  0  0
  -37.4274   12.9532  -23.3548 C   0  0  0  0  0  0  0  0  0  0  0  0
  -37.0868   13.4663  -22.1182 F   0  0  0  0  0  0  0  0  0  0  0  0
  -38.3024   11.8911  -23.2338 F   0  0  0  0  0  0  0  0  0  0  0  0
  -38.0128   13.9703  -24.0811 F   0  0  0  0  0  0  0  0  0  0  0  0
  -35.0730   13.3331  -24.1355 C   0  0  0  0  0  0  0  0  0  0  0  0
  -29.1789   13.7817  -24.8436 C   0  0  0  0  0  0  0  0  0  0  0  0
  -27.9936   14.4378  -24.8336 C   0  0  0  0  0  0  0  0  0  0  0  0
  -27.8925   15.6722  -25.4401 C   0  0  0  0  0  0  0  0  0  0  0  0
  -26.6065   16.4222  -25.4508 C   0  0  0  0  0  0  0  0  0  0  0  0
  -29.3108   18.6998  -26.0008 C   0  0  0  0  0  0  0  0  0  0  0  0
  -28.1853   24.9220  -30.7796 C   0  0  0  0  0  0  0  0  0  0  0  0
  -27.6965   25.0066  -32.0488 N   0  0  0  0  0  0  0  0  0  0  0  0
  1  2  1  0
  2  3  2  0
  3  4  1  0
  4  5  2  0
  5  6  1  0
  6  7  1  0
  7  8  2  0
  8  9  1  0
  9 10  2  0
 10 11  1  0
 11 12  2  0
 11 13  1  0
 13 14  1  0
 13 15  1  0
 15 16  2  0
 15 17  1  0
 17 18  1  0
 18 19  2  0
 19 20  1  0
 20 21  1  0
 21 22  1  0
 22 23  2  0
 22 24  1  0
 24 25  2  0
 25 26  1  0
 26 27  2  0
 27 28  1  0
 28 29  1  0
 29 30  1  0
 29 31  1  0
 29 32  1  0
 28 33  2  0
 20 34  2  0
 34 35  1  0
 35 36  2  0
 36 37  1  0
 17 38  1  0
  5 39  1  0
 39 40  2  0
 40  2  1  0
 12  7  1  0
 36 18  1  0
 38 10  1  0
 33 24  1  0
M  END
$$$$
