
     RDKit          3D

 26 28  0  0  0  0  0  0  0  0999 V2000
  -19.8292   34.1367  -22.3853 O   0  0  0  0  0  0  0  0  0  0  0  0
  -19.4404   35.3082  -22.6212 C   0  0  0  0  0  0  0  0  0  0  0  0
  -20.4202   36.2425  -22.9146 O   0  0  0  0  0  0  0  0  0  0  0  0
  -17.9954   35.6519  -22.5818 C   0  0  0  0  0  0  0  0  0  0  0  0
  -17.8098   37.1034  -22.7246 N   0  0  0  0  0  0  0  0  0  0  0  0
  -18.0534   37.9434  -21.6221 C   0  0  0  0  0  0  0  0  0  0  0  0
  -18.4414   37.3711  -20.5546 O   0  0  0  0  0  0  0  0  0  0  0  0
  -17.8969   39.3958  -21.6125 C   0  0  0  0  0  0  0  0  0  0  0  0
  -17.3476   40.0931  -20.5897 C   0  0  0  0  0  0  0  0  0  0  0  0
  -16.8829   39.4621  -19.4522 O   0  0  0  0  0  0  0  0  0  0  0  0
  -17.2547   41.4831  -20.7006 C   0  0  0  0  0  0  0  0  0  0  0  0
  -16.7142   42.1693  -19.6498 C   0  0  0  0  0  0  0  0  0  0  0  0
  -16.6046   43.5325  -19.6721 C   0  0  0  0  0  0  0  0  0  0  0  0
  -17.0516   44.2136  -20.7804 C   0  0  0  0  0  0  0  0  0  0  0  0
  -17.6058   43.5670  -21.8700 C   0  0  0  0  0  0  0  0  0  0  0  0
  -17.6984   42.1798  -21.8097 C   0  0  0  0  0  0  0  0  0  0  0  0
  -18.2394   41.4771  -22.8181 N   0  0  0  0  0  0  0  0  0  0  0  0
  -18.6878   42.0652  -24.0368 C   0  0  0  0  0  0  0  0  0  0  0  0
  -17.6844   42.2971  -25.0812 C   0  0  0  0  0  0  0  0  0  0  0  0
  -17.2980   43.5715  -25.4114 C   0  0  0  0  0  0  0  0  0  0  0  0
  -16.3533   43.8404  -26.4085 C   0  0  0  0  0  0  0  0  0  0  0  0
  -15.7859   42.7920  -27.0883 C   0  0  0  0  0  0  0  0  0  0  0  0
  -16.1781   41.5202  -26.7523 C   0  0  0  0  0  0  0  0  0  0  0  0
  -17.0917   41.2480  -25.7890 C   0  0  0  0  0  0  0  0  0  0  0  0
  -18.3280   40.1442  -22.7069 C   0  0  0  0  0  0  0  0  0  0  0  0
  -18.8396   39.4713  -23.6495 O   0  0  0  0  0  0  0  0  0  0  0  0
  1  2  2  0
  2  3  1  0
  2  4  1  0
  4  5  1  0
  5  6  1  0
  6  7  2  0
  6  8  1  0
  8  9  2  0
  9 10  1  0
  9 11  1  0
 11 12  2  0
 12 13  1  0
 13 14  2  0
 14 15  1  0
 15 16  2  0
 16 17  1  0
 17 18  1  0
 18 19  1  0
 19 20  2  0
 20 21  1  0
 21 22  2  0
 22 23  1  0
 23 24  2  0
 17 25  1  0
 25 26  2  0
 25  8  1  0
 16 11  1  0
 24 19  1  0
M  END
$$$$
