
     RDKit          3D

 42 46  0  0  0  0  0  0  0  0999 V2000
  -27.8939    9.7635  -26.7755 C   0  0  0  0  0  0  0  0  0  0  0  0
  -28.3305   11.2178  -26.7695 C   0  0  0  0  0  0  0  0  0  0  0  0
  -28.9007   11.5724  -28.1223 C   0  0  0  0  0  0  0  0  0  0  0  0
  -27.1726   12.0316  -26.4990 N   0  0  0  0  0  0  0  0  0  0  0  0
  -26.4883   12.7531  -27.4902 C   0  0  0  0  0  0  0  0  0  0  0  0
  -25.9213   12.1592  -28.4416 O   0  0  0  0  0  0  0  0  0  0  0  0
  -26.4176   14.2297  -27.4394 C   0  0  1  0  0  0  0  0  0  0  0  0
  -26.9848   14.7748  -28.7454 C   0  0  0  0  0  0  0  0  0  0  0  0
  -28.1070   15.7497  -28.4160 C   0  0  0  0  0  0  0  0  0  0  0  0
  -27.4609   16.8342  -27.5487 C   0  0  1  0  0  0  0  0  0  0  0  0
  -28.2834   18.0141  -27.4605 N   0  0  0  0  0  0  0  0  0  0  0  0
  -27.9063   19.2896  -27.6592 C   0  0  0  0  0  0  0  0  0  0  0  0
  -26.5842   19.7213  -28.0011 N   0  0  0  0  0  0  0  0  0  0  0  0
  -26.2422   20.1271  -29.3141 C   0  0  0  0  0  0  0  0  0  0  0  0
  -27.1735   20.0303  -30.1747 O   0  0  0  0  0  0  0  0  0  0  0  0
  -24.9549   20.6262  -29.7318 C   0  0  0  0  0  0  0  0  0  0  0  0
  -24.8495   21.7244  -30.5451 C   0  0  0  0  0  0  0  0  0  0  0  0
  -23.5952   22.2056  -30.9485 C   0  0  0  0  0  0  0  0  0  0  0  0
  -22.4907   21.5504  -30.5087 C   0  0  0  0  0  0  0  0  0  0  0  0
  -21.2770   22.0293  -30.9091 F   0  0  0  0  0  0  0  0  0  0  0  0
  -22.5470   20.4515  -29.6971 C   0  0  0  0  0  0  0  0  0  0  0  0
  -23.8087   19.9999  -29.3152 C   0  0  0  0  0  0  0  0  0  0  0  0
  -28.9354   20.1216  -27.4943 N   0  0  0  0  0  0  0  0  0  0  0  0
  -30.0241   19.3773  -27.1775 C   0  0  0  0  0  0  0  0  0  0  0  0
  -31.3405   19.6993  -26.9007 C   0  0  0  0  0  0  0  0  0  0  0  0
  -32.2380   18.7184  -26.6066 C   0  0  0  0  0  0  0  0  0  0  0  0
  -31.8348   17.4013  -26.5846 C   0  0  0  0  0  0  0  0  0  0  0  0
  -32.8255   16.3743  -26.2645 C   0  0  0  0  0  0  0  0  0  0  0  0
  -32.8815   15.9942  -24.8894 N   0  0  0  0  0  0  0  0  0  0  0  0
  -32.5190   14.6454  -24.6077 C   0  0  0  0  0  0  0  0  0  0  0  0
  -33.5571   13.6251  -24.8692 C   0  0  0  0  0  0  0  0  0  0  0  0
  -34.9660   14.0555  -24.6925 C   0  0  0  0  0  0  0  0  0  0  0  0
  -35.5671   13.4829  -23.3993 C   0  0  0  0  0  0  0  0  0  0  0  0
  -36.8650   14.2232  -23.1411 C   0  0  0  0  0  0  0  0  0  0  0  0
  -34.6571   13.7844  -22.2253 C   0  0  0  0  0  0  0  0  0  0  0  0
  -35.8346   12.1372  -23.5344 O   0  0  0  0  0  0  0  0  0  0  0  0
  -35.2083   15.5215  -24.8081 C   0  0  0  0  0  0  0  0  0  0  0  0
  -34.1213   16.3963  -24.2737 C   0  0  0  0  0  0  0  0  0  0  0  0
  -30.5205   17.1015  -26.8630 C   0  0  0  0  0  0  0  0  0  0  0  0
  -29.6018   18.0727  -27.1609 C   0  0  0  0  0  0  0  0  0  0  0  0
  -26.9954   16.2918  -26.2387 C   0  0  0  0  0  0  0  0  0  0  0  0
  -27.1763   14.7766  -26.2535 C   0  0  0  0  0  0  0  0  0  0  0  0
  1  2  1  0
  2  3  1  0
  2  4  1  0
  4  5  1  0
  5  6  2  0
  7  5  1  6
  7  8  1  0
  8  9  1  0
  9 10  1  0
 10 11  1  1
 11 12  1  0
 12 13  1  0
 13 14  1  0
 14 15  2  0
 14 16  1  0
 16 17  2  0
 17 18  1  0
 18 19  2  0
 19 20  1  0
 19 21  1  0
 21 22  2  0
 12 23  2  0
 23 24  1  0
 24 25  2  0
 25 26  1  0
 26 27  2  0
 27 28  1  0
 28 29  1  0
 29 30  1  0
 30 31  1  0
 31 32  1  0
 32 33  1  0
 33 34  1  0
 33 35  1  0
 33 36  1  0
 32 37  1  0
 37 38  1  0
 27 39  1  0
 39 40  2  0
 10 41  1  0
 41 42  1  0
 42  7  1  0
 40 11  1  0
 22 16  1  0
 40 24  1  0
 38 29  1  0
M  END
$$$$
