
     RDKit          3D

 30 34  0  0  0  0  0  0  0  0999 V2000
  -17.8246   41.2375  -19.3964 C   0  0  0  0  0  0  0  0  0  0  0  0
  -17.7240   41.6082  -20.8530 C   0  0  0  0  0  0  0  0  0  0  0  0
  -18.1675   42.8408  -21.2343 C   0  0  0  0  0  0  0  0  0  0  0  0
  -18.1078   43.2523  -22.5520 C   0  0  0  0  0  0  0  0  0  0  0  0
  -18.5673   44.5340  -22.9100 N   0  0  0  0  0  0  0  0  0  0  0  0
  -19.0060   44.8373  -24.2353 C   0  0  0  0  0  0  0  0  0  0  0  0
  -18.0226   45.9010  -24.7579 C   0  0  0  0  0  0  0  0  0  0  0  0
  -17.7458   46.8366  -23.7890 O   0  0  0  0  0  0  0  0  0  0  0  0
  -18.6623   46.8887  -22.7478 C   0  0  0  0  0  0  0  0  0  0  0  0
  -18.5956   45.5898  -21.9235 C   0  0  0  0  0  0  0  0  0  0  0  0
  -17.5792   42.3546  -23.4522 C   0  0  0  0  0  0  0  0  0  0  0  0
  -17.1284   41.0961  -23.0520 C   0  0  0  0  0  0  0  0  0  0  0  0
  -17.1806   40.6713  -21.7459 C   0  0  0  0  0  0  0  0  0  0  0  0
  -16.7551   39.4333  -21.2551 N   0  0  0  0  0  0  0  0  0  0  0  0
  -17.2130   38.1580  -21.6823 C   0  0  0  0  0  0  0  0  0  0  0  0
  -17.9871   38.0633  -22.7647 N   0  0  0  0  0  0  0  0  0  0  0  0
  -18.4897   36.9083  -23.2769 C   0  0  0  0  0  0  0  0  0  0  0  0
  -19.3122   36.9422  -24.4181 N   0  0  0  0  0  0  0  0  0  0  0  0
  -19.6325   37.9800  -25.3236 C   0  0  0  0  0  0  0  0  0  0  0  0
  -20.5445   37.6267  -26.4719 C   0  0  0  0  0  0  0  0  0  0  0  0
  -20.3092   38.6789  -27.5595 C   0  0  0  0  0  0  0  0  0  0  0  0
  -20.5110   40.0675  -27.0288 C   0  0  0  0  0  0  0  0  0  0  0  0
  -20.9781   40.0594  -25.5910 C   0  0  0  0  0  0  0  0  0  0  0  0
  -19.9382   39.3251  -24.7362 C   0  0  0  0  0  0  0  0  0  0  0  0
  -18.1833   35.7331  -22.6362 C   0  0  0  0  0  0  0  0  0  0  0  0
  -18.4831   34.4361  -22.8235 N   0  0  0  0  0  0  0  0  0  0  0  0
  -17.8924   33.7296  -21.8553 C   0  0  0  0  0  0  0  0  0  0  0  0
  -17.2157   34.5555  -21.0459 N   0  0  0  0  0  0  0  0  0  0  0  0
  -17.3820   35.8098  -21.5119 C   0  0  0  0  0  0  0  0  0  0  0  0
  -16.9203   37.0101  -21.0663 N   0  0  0  0  0  0  0  0  0  0  0  0
  1  2  1  0
  2  3  2  0
  3  4  1  0
  4  5  1  0
  5  6  1  0
  6  7  1  0
  7  8  1  0
  8  9  1  0
  9 10  1  0
  4 11  2  0
 11 12  1  0
 12 13  2  0
 13 14  1  0
 14 15  1  0
 15 16  2  0
 16 17  1  0
 17 18  1  0
 18 19  1  0
 19 20  1  0
 20 21  1  0
 21 22  1  0
 22 23  1  0
 23 24  1  0
 17 25  2  0
 25 26  1  0
 26 27  2  0
 27 28  1  0
 28 29  1  0
 29 30  2  0
 13  2  1  0
 30 15  1  0
 10  5  1  0
 24 19  1  0
 29 25  1  0
M  END
$$$$
