
     RDKit          3D

 42 44  0  0  0  0  0  0  0  0999 V2000
  -18.6864   18.8637  -36.8997 Cl  0  0  0  0  0  0  0  0  0  0  0  0
  -21.1601   24.1269  -40.7300 O   0  0  0  0  0  0  0  0  0  0  0  0
  -20.0663   24.4476  -41.2425 C   0  0  0  0  0  0  0  0  0  0  0  0
  -19.6352   25.7496  -41.1712 O   0  0  0  0  0  0  0  0  0  0  0  0
  -19.2473   23.4255  -41.9197 C   0  0  0  0  0  0  0  0  0  0  0  0
  -19.9503   22.1247  -41.8438 C   0  0  0  0  0  0  0  0  0  0  0  0
  -20.8328   21.7655  -42.8461 C   0  0  0  0  0  0  0  0  0  0  0  0
  -21.4624   20.5603  -42.7434 C   0  0  0  0  0  0  0  0  0  0  0  0
  -21.2279   19.7197  -41.6702 C   0  0  0  0  0  0  0  0  0  0  0  0
  -20.3546   20.0492  -40.6558 C   0  0  0  0  0  0  0  0  0  0  0  0
  -20.1173   19.2129  -39.5823 O   0  0  0  0  0  0  0  0  0  0  0  0
  -19.2231   19.5415  -38.5367 C   0  0  0  0  0  0  0  0  0  0  0  0
  -19.1729   18.4242  -37.4976 C   0  0  0  0  0  0  0  0  0  0  0  0
  -18.2120   18.8550  -36.4377 C   0  0  0  0  0  0  0  0  0  0  0  0
  -18.0494   17.8929  -35.3674 N   0  0  0  0  0  0  0  0  0  0  0  0
  -17.3855   16.7368  -35.8648 C   0  0  0  0  0  0  0  0  0  0  0  0
  -16.0613   17.1063  -36.4118 C   0  0  0  0  0  0  0  0  0  0  0  0
  -15.8391   17.1700  -37.7681 C   0  0  0  0  0  0  0  0  0  0  0  0
  -14.5879   17.5151  -38.2800 C   0  0  0  0  0  0  0  0  0  0  0  0
  -13.5485   17.7990  -37.4263 C   0  0  0  0  0  0  0  0  0  0  0  0
  -13.7536   17.7397  -36.0733 C   0  0  0  0  0  0  0  0  0  0  0  0
  -12.6330   18.0466  -35.1599 C   0  0  0  0  0  0  0  0  0  0  0  0
  -12.9870   19.1118  -34.3829 F   0  0  0  0  0  0  0  0  0  0  0  0
  -12.5276   16.9489  -34.2961 F   0  0  0  0  0  0  0  0  0  0  0  0
  -11.4385   18.1739  -35.7967 F   0  0  0  0  0  0  0  0  0  0  0  0
  -15.0100   17.3934  -35.5718 C   0  0  0  0  0  0  0  0  0  0  0  0
  -15.1592   17.3469  -33.8292 Cl  0  0  0  0  0  0  0  0  0  0  0  0
  -19.2649   17.6524  -34.6558 C   0  0  0  0  0  0  0  0  0  0  0  0
  -19.2301   16.6943  -33.5408 C   0  0  0  0  0  0  0  0  0  0  0  0
  -18.3340   17.0007  -32.4316 C   0  0  0  0  0  0  0  0  0  0  0  0
  -17.7632   15.9509  -31.7295 C   0  0  0  0  0  0  0  0  0  0  0  0
  -16.9122   16.1188  -30.6757 C   0  0  0  0  0  0  0  0  0  0  0  0
  -16.5895   17.4121  -30.2712 C   0  0  0  0  0  0  0  0  0  0  0  0
  -17.1427   18.4576  -30.9517 C   0  0  0  0  0  0  0  0  0  0  0  0
  -18.0055   18.2770  -32.0201 C   0  0  0  0  0  0  0  0  0  0  0  0
  -20.6203   16.5968  -32.9819 C   0  0  0  0  0  0  0  0  0  0  0  0
  -21.6988   16.2152  -33.7739 C   0  0  0  0  0  0  0  0  0  0  0  0
  -22.9764   16.1361  -33.2115 C   0  0  0  0  0  0  0  0  0  0  0  0
  -23.2005   16.4275  -31.8846 C   0  0  0  0  0  0  0  0  0  0  0  0
  -22.1334   16.8050  -31.1005 C   0  0  0  0  0  0  0  0  0  0  0  0
  -20.8927   16.8786  -31.6600 C   0  0  0  0  0  0  0  0  0  0  0  0
  -19.7146   21.2884  -40.7724 C   0  0  0  0  0  0  0  0  0  0  0  0
  2  3  2  0
  3  4  1  0
  3  5  1  0
  5  6  1  0
  6  7  2  0
  7  8  1  0
  8  9  2  0
  9 10  1  0
 10 11  1  0
 11 12  1  0
 12 13  1  0
 13 14  1  0
 14 15  1  0
 15 16  1  0
 16 17  1  0
 17 18  2  0
 18 19  1  0
 19 20  2  0
 20 21  1  0
 21 22  1  0
 22 23  1  0
 22 24  1  0
 22 25  1  0
 21 26  2  0
 26 27  1  0
 15 28  1  0
 28 29  1  0
 29 30  1  0
 30 31  2  0
 31 32  1  0
 32 33  2  0
 33 34  1  0
 34 35  2  0
 29 36  1  0
 36 37  2  0
 37 38  1  0
 38 39  2  0
 39 40  1  0
 40 41  2  0
 10 42  2  0
 42  6  1  0
 26 17  1  0
 35 30  1  0
 41 36  1  0
M  END
$$$$
