
     RDKit          3D

 21 22  0  0  0  0  0  0  0  0999 V2000
  -17.0353   17.4057  -34.3109 O   0  0  0  0  0  0  0  0  0  0  0  0
  -16.0290   16.6166  -33.7215 C   0  0  0  0  0  0  0  0  0  0  0  0
  -14.7671   16.6177  -34.2841 C   0  0  0  0  0  0  0  0  0  0  0  0
  -14.4039   17.5795  -35.7141 Cl  0  0  0  0  0  0  0  0  0  0  0  0
  -13.7912   15.8394  -33.6947 C   0  0  0  0  0  0  0  0  0  0  0  0
  -14.0991   15.0931  -32.5766 C   0  0  0  0  0  0  0  0  0  0  0  0
  -12.8059   14.1220  -31.8723 Cl  0  0  0  0  0  0  0  0  0  0  0  0
  -15.3652   15.1053  -32.0293 C   0  0  0  0  0  0  0  0  0  0  0  0
  -15.7370   14.1515  -30.6078 Cl  0  0  0  0  0  0  0  0  0  0  0  0
  -16.3778   15.8855  -32.6050 C   0  0  0  0  0  0  0  0  0  0  0  0
  -17.7295   15.8950  -32.0187 C   0  0  0  0  0  0  0  0  0  0  0  0
  -18.1971   17.2054  -31.5496 C   0  0  0  0  0  0  0  0  0  0  0  0
  -17.4252   18.1810  -30.9699 C   0  0  0  0  0  0  0  0  0  0  0  0
  -16.0745   17.9741  -30.7829 O   0  0  0  0  0  0  0  0  0  0  0  0
  -17.9800   19.3929  -30.5599 C   0  0  0  0  0  0  0  0  0  0  0  0
  -16.9426   20.5706  -29.8362 Cl  0  0  0  0  0  0  0  0  0  0  0  0
  -19.3289   19.5756  -30.7580 C   0  0  0  0  0  0  0  0  0  0  0  0
  -20.1417   18.6344  -31.3320 C   0  0  0  0  0  0  0  0  0  0  0  0
  -21.8534   18.9617  -31.5433 Cl  0  0  0  0  0  0  0  0  0  0  0  0
  -19.5649   17.4512  -31.7244 C   0  0  0  0  0  0  0  0  0  0  0  0
  -20.6183   16.2494  -32.4625 Cl  0  0  0  0  0  0  0  0  0  0  0  0
  1  2  1  0
  2  3  2  0
  3  4  1  0
  3  5  1  0
  5  6  2  0
  6  7  1  0
  6  8  1  0
  8  9  1  0
  8 10  2  0
 10 11  1  0
 11 12  1  0
 12 13  2  0
 13 14  1  0
 13 15  1  0
 15 16  1  0
 15 17  2  0
 17 18  1  0
 18 19  1  0
 18 20  2  0
 20 21  1  0
 10  2  1  0
 20 12  1  0
M  END
$$$$
