
     RDKit          3D

 32 33  0  0  0  0  0  0  0  0999 V2000
  -30.7565   27.7625  -40.4295 C   0  0  0  0  0  0  0  0  0  0  0  0
  -29.3511   27.4817  -39.9928 C   0  0  0  0  0  0  0  0  0  0  0  0
  -28.7372   26.3326  -40.7497 C   0  0  0  0  0  0  0  0  0  0  0  0
  -28.5159   28.7122  -40.2844 C   0  0  0  0  0  0  0  0  0  0  0  0
  -29.2548   27.2270  -38.5984 O   0  0  0  0  0  0  0  0  0  0  0  0
  -28.0680   26.7588  -38.0258 C   0  0  0  0  0  0  0  0  0  0  0  0
  -27.0610   27.4357  -38.2225 O   0  0  0  0  0  0  0  0  0  0  0  0
  -27.9925   25.5894  -37.2652 N   0  0  0  0  0  0  0  0  0  0  0  0
  -26.9836   25.1955  -36.3622 C   0  0  0  0  0  0  0  0  0  0  0  0
  -27.3213   24.5579  -35.1600 C   0  0  0  0  0  0  0  0  0  0  0  0
  -26.3688   24.1603  -34.2551 C   0  0  0  0  0  0  0  0  0  0  0  0
  -25.0258   24.3609  -34.4680 C   0  0  0  0  0  0  0  0  0  0  0  0
  -24.0087   23.9408  -33.5102 C   0  0  0  0  0  0  0  0  0  0  0  0
  -23.1482   22.8548  -33.6795 C   0  0  0  0  0  0  0  0  0  0  0  0
  -22.3328   22.7779  -32.5634 C   0  0  0  0  0  0  0  0  0  0  0  0
  -21.2756   21.8128  -32.2769 C   0  0  0  0  0  0  0  0  0  0  0  0
  -21.4572   20.6144  -32.5649 O   0  0  0  0  0  0  0  0  0  0  0  0
  -20.0441   22.1831  -31.6817 N   0  0  0  0  0  0  0  0  0  0  0  0
  -18.7587   22.0518  -32.2996 C   0  0  0  0  0  0  0  0  0  0  0  0
  -18.5815   20.6389  -32.9283 C   0  0  0  0  0  0  0  0  0  0  0  0
  -18.4045   19.6304  -31.8702 C   0  0  0  0  0  0  0  0  0  0  0  0
  -18.0619   18.2448  -32.1711 C   0  0  0  0  0  0  0  0  0  0  0  0
  -16.7498   17.8020  -32.6423 C   0  0  0  0  0  0  0  0  0  0  0  0
  -16.0076   16.7877  -31.8667 C   0  0  0  0  0  0  0  0  0  0  0  0
  -14.6572   16.5020  -32.4862 C   0  0  0  0  0  0  0  0  0  0  0  0
  -14.1956   17.3777  -33.2501 O   0  0  0  0  0  0  0  0  0  0  0  0
  -14.0113   15.2799  -32.1666 N   0  0  0  0  0  0  0  0  0  0  0  0
  -12.6610   15.2611  -32.1242 O   0  0  0  0  0  0  0  0  0  0  0  0
  -22.7255   23.7989  -31.7819 N   0  0  0  0  0  0  0  0  0  0  0  0
  -23.6990   24.4582  -32.3537 O   0  0  0  0  0  0  0  0  0  0  0  0
  -24.6666   24.9810  -35.6330 C   0  0  0  0  0  0  0  0  0  0  0  0
  -25.6430   25.3875  -36.5586 C   0  0  0  0  0  0  0  0  0  0  0  0
  1  2  1  0
  2  3  1  0
  2  4  1  0
  2  5  1  0
  5  6  1  0
  6  7  2  0
  6  8  1  0
  8  9  1  0
  9 10  2  0
 10 11  1  0
 11 12  2  0
 12 13  1  0
 13 14  2  0
 14 15  1  0
 15 16  1  0
 16 17  2  0
 16 18  1  0
 18 19  1  0
 19 20  1  0
 20 21  1  0
 21 22  1  0
 22 23  1  0
 23 24  1  0
 24 25  1  0
 25 26  2  0
 25 27  1  0
 27 28  1  0
 15 29  2  0
 29 30  1  0
 12 31  1  0
 31 32  2  0
 32  9  1  0
 30 13  1  0
M  END
$$$$
