
     RDKit          3D

 17 18  0  0  0  0  0  0  0  0999 V2000
  -17.4658   17.4849  -31.4671 C   0  0  0  0  0  0  0  0  0  0  0  0
  -17.3081   16.0548  -31.8621 C   0  0  0  0  0  0  0  0  0  0  0  0
  -17.5677   15.1417  -30.6393 C   0  0  0  0  0  0  0  0  0  0  0  0
  -15.9888   15.7141  -32.3878 C   0  0  0  0  0  0  0  0  0  0  0  0
  -15.6553   16.2701  -33.4991 O   0  0  0  0  0  0  0  0  0  0  0  0
  -15.0051   14.8316  -31.8217 C   0  0  0  0  0  0  0  0  0  0  0  0
  -13.6636   15.0249  -32.0782 C   0  0  0  0  0  0  0  0  0  0  0  0
  -12.6594   14.2283  -31.5694 C   0  0  0  0  0  0  0  0  0  0  0  0
  -13.0437   13.1803  -30.7569 C   0  0  0  0  0  0  0  0  0  0  0  0
  -14.3477   12.9871  -30.5035 N   0  0  0  0  0  0  0  0  0  0  0  0
  -15.3219   13.7705  -31.0048 C   0  0  0  0  0  0  0  0  0  0  0  0
  -18.4101   15.6937  -32.8061 C   0  0  0  0  0  0  0  0  0  0  0  0
  -18.4153   14.4528  -33.4381 C   0  0  0  0  0  0  0  0  0  0  0  0
  -19.4411   14.1525  -34.2803 C   0  0  0  0  0  0  0  0  0  0  0  0
  -20.4672   15.0399  -34.5213 C   0  0  0  0  0  0  0  0  0  0  0  0
  -20.4329   16.2276  -33.8966 N   0  0  0  0  0  0  0  0  0  0  0  0
  -19.4393   16.5715  -33.0538 C   0  0  0  0  0  0  0  0  0  0  0  0
  1  2  1  0
  2  3  1  0
  2  4  1  0
  4  5  2  0
  4  6  1  0
  6  7  2  0
  7  8  1  0
  8  9  2  0
  9 10  1  0
 10 11  2  0
  2 12  1  0
 12 13  2  0
 13 14  1  0
 14 15  2  0
 15 16  1  0
 16 17  2  0
 11  6  1  0
 17 12  1  0
M  END
$$$$
