
     RDKit          3D

 20 21  0  0  0  0  0  0  0  0999 V2000
  -17.2517   44.6612  -24.5530 C   0  0  0  0  0  0  0  0  0  0  0  0
  -17.9713   44.4513  -23.2607 C   0  0  0  0  0  0  0  0  0  0  0  0
  -17.7218   45.5756  -22.2727 C   0  0  0  0  0  0  0  0  0  0  0  0
  -19.4771   44.4959  -23.5614 C   0  0  0  0  0  0  0  0  0  0  0  0
  -17.7309   43.1115  -22.6358 C   0  0  0  0  0  0  0  0  0  0  0  0
  -18.3363   42.1432  -23.4654 O   0  0  0  0  0  0  0  0  0  0  0  0
  -18.2685   42.9711  -21.2284 C   0  0  0  0  0  0  0  0  0  0  0  0
  -17.5393   43.6145  -20.2557 O   0  0  0  0  0  0  0  0  0  0  0  0
  -16.1779   43.7947  -20.2215 C   0  0  0  0  0  0  0  0  0  0  0  0
  -15.2367   42.8651  -20.5895 C   0  0  0  0  0  0  0  0  0  0  0  0
  -13.8601   43.1100  -20.5316 C   0  0  0  0  0  0  0  0  0  0  0  0
  -13.4271   44.3339  -20.0871 C   0  0  0  0  0  0  0  0  0  0  0  0
  -11.7294   44.6777  -20.0001 Cl  0  0  0  0  0  0  0  0  0  0  0  0
  -14.3573   45.2757  -19.7148 C   0  0  0  0  0  0  0  0  0  0  0  0
  -15.7160   45.0263  -19.7748 C   0  0  0  0  0  0  0  0  0  0  0  0
  -18.4174   41.5572  -20.9190 N   0  0  0  0  0  0  0  0  0  0  0  0
  -19.4338   40.9572  -20.2995 C   0  0  0  0  0  0  0  0  0  0  0  0
  -19.1876   39.6431  -20.2089 N   0  0  0  0  0  0  0  0  0  0  0  0
  -18.0059   39.4236  -20.7778 C   0  0  0  0  0  0  0  0  0  0  0  0
  -17.5420   40.6189  -21.2125 N   0  0  0  0  0  0  0  0  0  0  0  0
  1  2  1  0
  2  3  1  0
  2  4  1  0
  2  5  1  0
  5  6  1  0
  5  7  1  0
  7  8  1  0
  8  9  1  0
  9 10  2  0
 10 11  1  0
 11 12  2  0
 12 13  1  0
 12 14  1  0
 14 15  2  0
  7 16  1  0
 16 17  1  0
 17 18  2  0
 18 19  1  0
 19 20  2  0
 15  9  1  0
 20 16  1  0
M  END
$$$$
