
     RDKit          3D

 23 25  0  0  0  0  0  0  0  0999 V2000
  -20.7032   32.1462  -22.3979 C   0  0  0  0  0  0  0  0  0  0  0  0
  -19.8301   32.8944  -23.2102 O   0  0  0  0  0  0  0  0  0  0  0  0
  -19.1898   33.9971  -22.6799 C   0  0  0  0  0  0  0  0  0  0  0  0
  -18.1367   33.8174  -21.8071 C   0  0  0  0  0  0  0  0  0  0  0  0
  -17.7376   32.5225  -21.4759 O   0  0  0  0  0  0  0  0  0  0  0  0
  -17.5153   34.9329  -21.2926 C   0  0  0  0  0  0  0  0  0  0  0  0
  -17.9057   36.2193  -21.6166 C   0  0  0  0  0  0  0  0  0  0  0  0
  -18.9586   36.4013  -22.4892 C   0  0  0  0  0  0  0  0  0  0  0  0
  -19.5900   35.2943  -23.0120 C   0  0  0  0  0  0  0  0  0  0  0  0
  -20.6574   35.3897  -23.8966 O   0  0  0  0  0  0  0  0  0  0  0  0
  -19.4353   37.7511  -22.8852 C   0  0  2  0  0  0  0  0  0  0  0  0
  -19.7993   37.7607  -24.2188 O   0  0  0  0  0  0  0  0  0  0  0  0
  -20.2770   38.9982  -24.5691 C   0  0  2  0  0  0  0  0  0  0  0  0
  -20.9335   39.0152  -25.9310 C   0  0  0  0  0  0  0  0  0  0  0  0
  -19.9565   38.6683  -26.8829 O   0  0  0  0  0  0  0  0  0  0  0  0
  -19.1618   40.0169  -24.5003 C   0  0  1  0  0  0  0  0  0  0  0  0
  -19.5291   41.2515  -25.0078 O   0  0  0  0  0  0  0  0  0  0  0  0
  -18.7342   40.0931  -23.0484 C   0  0  2  0  0  0  0  0  0  0  0  0
  -17.7324   41.0355  -22.8535 O   0  0  0  0  0  0  0  0  0  0  0  0
  -18.2647   38.6972  -22.6942 C   0  0  1  0  0  0  0  0  0  0  0  0
  -17.6818   38.6225  -21.4311 O   0  0  0  0  0  0  0  0  0  0  0  0
  -17.1996   37.3822  -21.0315 C   0  0  0  0  0  0  0  0  0  0  0  0
  -16.2352   37.2330  -20.2322 O   0  0  0  0  0  0  0  0  0  0  0  0
  1  2  1  0
  2  3  1  0
  3  4  2  0
  4  5  1  0
  4  6  1  0
  6  7  2  0
  7  8  1  0
  8  9  2  0
  9 10  1  0
  8 11  1  0
 11 12  1  6
 12 13  1  0
 13 14  1  6
 14 15  1  0
 13 16  1  0
 16 17  1  1
 16 18  1  0
 18 19  1  6
 18 20  1  0
 20 21  1  1
 21 22  1  0
 22 23  2  0
  9  3  1  0
 20 11  1  0
 22  7  1  0
M  END
$$$$
