
     RDKit          3D

 23 26  0  0  0  0  0  0  0  0999 V2000
  -18.0198   45.4689  -23.8589 C   0  0  0  0  0  0  0  0  0  0  0  0
  -17.6584   44.5463  -22.7720 N   0  0  0  0  0  0  0  0  0  0  0  0
  -17.9941   43.2475  -22.6683 C   0  0  0  0  0  0  0  0  0  0  0  0
  -17.4757   42.7009  -21.5106 C   0  0  0  0  0  0  0  0  0  0  0  0
  -17.5984   41.3348  -21.0122 C   0  0  0  0  0  0  0  0  0  0  0  0
  -17.3021   40.8953  -19.7395 C   0  0  0  0  0  0  0  0  0  0  0  0
  -17.5508   39.5553  -19.6762 N   0  0  0  0  0  0  0  0  0  0  0  0
  -17.9926   39.1469  -20.8697 N   0  0  0  0  0  0  0  0  0  0  0  0
  -18.3675   37.9249  -21.3025 C   0  0  0  0  0  0  0  0  0  0  0  0
  -18.3167   36.8304  -20.4093 N   0  0  0  0  0  0  0  0  0  0  0  0
  -18.7825   37.8241  -22.6109 C   0  0  0  0  0  0  0  0  0  0  0  0
  -19.3208   36.1152  -23.2628 Br  0  0  0  0  0  0  0  0  0  0  0  0
  -18.8208   38.9158  -23.4607 C   0  0  0  0  0  0  0  0  0  0  0  0
  -19.2842   38.7012  -24.8542 C   0  0  2  0  0  0  0  0  0  0  0  0
  -18.3216   39.3177  -25.8478 C   0  0  0  0  0  0  0  0  0  0  0  0
  -18.8504   39.0742  -27.2330 C   0  0  0  0  0  0  0  0  0  0  0  0
  -20.1786   38.3552  -27.2205 C   0  0  0  0  0  0  0  0  0  0  0  0
  -21.1469   38.9808  -26.3667 N   0  0  0  0  0  0  0  0  0  0  0  0
  -20.6407   39.3355  -25.0774 C   0  0  0  0  0  0  0  0  0  0  0  0
  -18.4377   40.1141  -22.9850 N   0  0  0  0  0  0  0  0  0  0  0  0
  -18.0287   40.2182  -21.6987 C   0  0  0  0  0  0  0  0  0  0  0  0
  -16.7959   43.7607  -20.9097 C   0  0  0  0  0  0  0  0  0  0  0  0
  -16.9428   44.8312  -21.7107 N   0  0  0  0  0  0  0  0  0  0  0  0
  1  2  1  0
  2  3  1  0
  3  4  2  0
  4  5  1  0
  5  6  1  0
  6  7  2  0
  7  8  1  0
  8  9  1  0
  9 10  1  0
  9 11  2  0
 11 12  1  0
 11 13  1  0
 14 13  1  1
 14 15  1  0
 15 16  1  0
 16 17  1  0
 17 18  1  0
 18 19  1  0
 13 20  2  0
 20 21  1  0
  4 22  1  0
 22 23  2  0
 23  2  1  0
 21  5  2  0
 21  8  1  0
 19 14  1  0
M  END
$$$$
