
     RDKit          3D

 46 51  0  0  0  0  0  0  0  0999 V2000
  -27.2117    9.1269  -28.3817 C   0  0  0  0  0  0  0  0  0  0  0  0
  -27.7970    9.8744  -29.4333 O   0  0  0  0  0  0  0  0  0  0  0  0
  -27.6435   11.2833  -29.4254 C   0  0  0  0  0  0  0  0  0  0  0  0
  -28.4391   12.0370  -30.1954 N   0  0  0  0  0  0  0  0  0  0  0  0
  -28.3033   13.3942  -30.2044 C   0  0  0  0  0  0  0  0  0  0  0  0
  -27.3652   14.0074  -29.4393 C   0  0  0  0  0  0  0  0  0  0  0  0
  -27.1657   15.4437  -29.4498 C   0  0  0  0  0  0  0  0  0  0  0  0
  -27.9408   16.2766  -28.7063 C   0  0  0  0  0  0  0  0  0  0  0  0
  -27.7200   17.6301  -28.7709 C   0  0  0  0  0  0  0  0  0  0  0  0
  -26.7508   18.2020  -29.5513 C   0  0  0  0  0  0  0  0  0  0  0  0
  -26.5940   19.5673  -29.5705 C   0  0  0  0  0  0  0  0  0  0  0  0
  -27.3891   20.3753  -28.7786 N   0  0  0  0  0  0  0  0  0  0  0  0
  -28.0570   20.1054  -27.5918 C   0  0  0  0  0  0  0  0  0  0  0  0
  -27.3796   19.8538  -26.4305 C   0  0  0  0  0  0  0  0  0  0  0  0
  -27.9903   19.5874  -25.2246 C   0  0  0  0  0  0  0  0  0  0  0  0
  -27.2595   19.3375  -24.0674 O   0  0  0  0  0  0  0  0  0  0  0  0
  -27.2296   18.1206  -23.4142 C   0  0  0  0  0  0  0  0  0  0  0  0
  -26.6911   16.9957  -24.0396 C   0  0  0  0  0  0  0  0  0  0  0  0
  -26.6521   15.7707  -23.4060 C   0  0  0  0  0  0  0  0  0  0  0  0
  -26.1256   14.6815  -24.0229 F   0  0  0  0  0  0  0  0  0  0  0  0
  -27.1433   15.6089  -22.1296 C   0  0  0  0  0  0  0  0  0  0  0  0
  -27.6771   16.7236  -21.5084 C   0  0  0  0  0  0  0  0  0  0  0  0
  -28.1713   16.5829  -20.2389 F   0  0  0  0  0  0  0  0  0  0  0  0
  -27.7175   17.9599  -22.1454 C   0  0  0  0  0  0  0  0  0  0  0  0
  -29.3555   19.5694  -25.1674 C   0  0  0  0  0  0  0  0  0  0  0  0
  -30.0806   19.8123  -26.2902 C   0  0  0  0  0  0  0  0  0  0  0  0
  -31.5518   19.7979  -26.2421 C   0  0  0  0  0  0  0  0  0  0  0  0
  -32.2196   20.1793  -27.2387 O   0  0  0  0  0  0  0  0  0  0  0  0
  -32.1886   19.3693  -25.1123 O   0  0  0  0  0  0  0  0  0  0  0  0
  -29.4134   20.0774  -27.4896 C   0  0  0  0  0  0  0  0  0  0  0  0
  -25.6075   20.0593  -30.3871 C   0  0  0  0  0  0  0  0  0  0  0  0
  -25.3803   21.7651  -30.4395 S   0  0  0  0  0  6  0  0  0  0  0  0
  -23.9206   22.0202  -30.8231 O   0  0  0  0  0  0  0  0  0  0  0  0
  -25.4704   22.4105  -29.0832 O   0  0  0  0  0  0  0  0  0  0  0  0
  -26.3647   22.5003  -31.5988 N   0  0  0  0  0  0  0  0  0  0  0  0
  -27.7501   22.2825  -31.5197 C   0  0  0  0  0  0  0  0  0  0  0  0
  -28.7451   23.0785  -32.2962 C   0  0  0  0  0  0  0  0  0  0  0  0
  -28.5617   21.6267  -32.5659 C   0  0  0  0  0  0  0  0  0  0  0  0
  -24.8136   19.1876  -31.1518 C   0  0  0  0  0  0  0  0  0  0  0  0
  -25.0083   17.8828  -31.0929 N   0  0  0  0  0  0  0  0  0  0  0  0
  -25.9425   17.3619  -30.3249 C   0  0  0  0  0  0  0  0  0  0  0  0
  -26.1613   16.0063  -30.2617 C   0  0  0  0  0  0  0  0  0  0  0  0
  -26.5356   13.1979  -28.6337 C   0  0  0  0  0  0  0  0  0  0  0  0
  -25.6541   13.7448  -27.9108 O   0  0  0  0  0  0  0  0  0  0  0  0
  -24.7734   14.3451  -27.1874 C   0  0  0  0  0  0  0  0  0  0  0  0
  -26.7229   11.8451  -28.6696 N   0  0  0  0  0  0  0  0  0  0  0  0
  1  2  1  0
  2  3  1  0
  3  4  2  0
  4  5  1  0
  5  6  2  0
  6  7  1  0
  7  8  2  0
  8  9  1  0
  9 10  2  0
 10 11  1  0
 11 12  1  0
 12 13  1  0
 13 14  2  0
 14 15  1  0
 15 16  1  0
 16 17  1  0
 17 18  2  0
 18 19  1  0
 19 20  1  0
 19 21  2  0
 21 22  1  0
 22 23  1  0
 22 24  2  0
 15 25  2  0
 25 26  1  0
 26 27  1  0
 27 28  2  0
 27 29  1  0
 26 30  2  0
 11 31  2  0
 31 32  1  0
 32 33  2  0
 32 34  2  0
 32 35  1  0
 35 36  1  0
 36 37  1  0
 37 38  1  0
 31 39  1  0
 39 40  2  0
 40 41  1  0
 41 42  2  0
  6 43  1  0
 43 44  1  0
 44 45  1  0
 43 46  2  0
 46  3  1  0
 42  7  1  0
 41 10  1  0
 30 13  1  0
 38 36  1  0
 24 17  1  0
M  END
$$$$
