
     RDKit          3D

 28 30  0  0  0  0  0  0  0  0999 V2000
  -18.5148   35.8128  -24.1011 C   0  0  0  0  0  0  0  0  0  0  0  0
  -19.2159   35.3364  -22.8636 C   0  0  0  0  0  0  0  0  0  0  0  0
  -19.7432   34.1198  -22.7848 N   0  0  0  0  0  0  0  0  0  0  0  0
  -20.2856   33.6044  -21.9732 N   0  0  0  0  0  0  0  0  0  0  0  0
  -20.2833   34.9342  -20.6591 S   0  0  0  0  0  0  0  0  0  0  0  0
  -19.3603   36.0943  -21.7591 C   0  0  0  0  0  0  0  0  0  0  0  0
  -19.0033   37.4120  -21.3224 C   0  0  0  0  0  0  0  0  0  0  0  0
  -19.5653   37.8256  -20.2663 O   0  0  0  0  0  0  0  0  0  0  0  0
  -18.1012   38.2507  -21.9643 N   0  0  0  0  0  0  0  0  0  0  0  0
  -17.8547   39.6139  -21.6882 C   0  0  0  0  0  0  0  0  0  0  0  0
  -17.4618   40.5694  -22.5886 C   0  0  0  0  0  0  0  0  0  0  0  0
  -17.2352   41.8977  -22.2520 C   0  0  0  0  0  0  0  0  0  0  0  0
  -17.4057   42.3041  -20.9570 C   0  0  0  0  0  0  0  0  0  0  0  0
  -17.1836   43.6592  -20.5686 N   0  0  0  0  0  0  0  0  0  0  0  0
  -18.0888   44.6239  -20.5902 N   0  0  0  0  0  0  0  0  0  0  0  0
  -17.5631   45.7855  -20.1633 C   0  0  0  0  0  0  0  0  0  0  0  0
  -18.2782   47.0872  -20.0505 C   0  0  0  0  0  0  0  0  0  0  0  0
  -17.5103   48.0336  -20.7069 F   0  0  0  0  0  0  0  0  0  0  0  0
  -19.5633   47.0204  -20.5508 F   0  0  0  0  0  0  0  0  0  0  0  0
  -18.3509   47.4510  -18.7277 F   0  0  0  0  0  0  0  0  0  0  0  0
  -16.2459   45.5101  -19.8604 C   0  0  0  0  0  0  0  0  0  0  0  0
  -16.0143   44.1721  -20.1174 C   0  0  0  0  0  0  0  0  0  0  0  0
  -14.7214   43.4623  -19.9258 C   0  0  0  0  0  0  0  0  0  0  0  0
  -14.6175   42.4209  -20.8590 F   0  0  0  0  0  0  0  0  0  0  0  0
  -13.6362   44.2851  -20.1679 F   0  0  0  0  0  0  0  0  0  0  0  0
  -14.6537   42.8575  -18.6849 F   0  0  0  0  0  0  0  0  0  0  0  0
  -17.7987   41.3578  -20.0462 C   0  0  0  0  0  0  0  0  0  0  0  0
  -18.0268   40.0432  -20.3599 C   0  0  0  0  0  0  0  0  0  0  0  0
  1  2  1  0
  2  3  1  0
  3  4  2  0
  4  5  1  0
  5  6  1  0
  6  7  1  0
  7  8  2  0
  7  9  1  0
  9 10  1  0
 10 11  2  0
 11 12  1  0
 12 13  2  0
 13 14  1  0
 14 15  1  0
 15 16  2  0
 16 17  1  0
 17 18  1  0
 17 19  1  0
 17 20  1  0
 16 21  1  0
 21 22  2  0
 22 23  1  0
 23 24  1  0
 23 25  1  0
 23 26  1  0
 13 27  1  0
 27 28  2  0
  6  2  2  0
 28 10  1  0
 22 14  1  0
M  END
$$$$
