
     RDKit          3D

 17 18  0  0  0  0  0  0  0  0999 V2000
  -17.1415   41.8669  -21.1271 O   0  0  0  0  0  0  0  0  0  0  0  0
  -17.4974   40.7338  -21.5471 C   0  0  0  0  0  0  0  0  0  0  0  0
  -17.4554   40.4715  -22.8575 N   0  0  0  0  0  0  0  0  0  0  0  0
  -17.8292   39.2689  -23.3407 C   0  0  0  0  0  0  0  0  0  0  0  0
  -17.7610   39.0985  -24.5907 O   0  0  0  0  0  0  0  0  0  0  0  0
  -18.2611   38.2741  -22.5435 N   0  0  0  0  0  0  0  0  0  0  0  0
  -18.6359   37.0383  -23.1309 C   0  0  1  0  0  0  0  0  0  0  0  0
  -17.4257   36.1900  -23.5498 C   0  0  0  0  0  0  0  0  0  0  0  0
  -18.1808   34.9058  -23.9081 C   0  0  2  0  0  0  0  0  0  0  0  0
  -18.7035   35.1172  -25.1874 O   0  0  0  0  0  0  0  0  0  0  0  0
  -19.2902   34.9388  -22.8914 C   0  0  1  0  0  0  0  0  0  0  0  0
  -19.0889   33.8595  -21.8429 C   0  0  0  0  0  0  0  0  0  0  0  0
  -19.2683   34.3571  -20.5581 O   0  0  0  0  0  0  0  0  0  0  0  0
  -19.2861   36.1675  -22.2870 O   0  0  0  0  0  0  0  0  0  0  0  0
  -18.3084   38.5261  -21.2176 C   0  0  0  0  0  0  0  0  0  0  0  0
  -17.9356   39.7387  -20.6900 C   0  0  0  0  0  0  0  0  0  0  0  0
  -18.0005   40.1501  -18.6448 I   0  0  0  0  0  0  0  0  0  0  0  0
  1  2  2  0
  2  3  1  0
  3  4  1  0
  4  5  2  0
  4  6  1  0
  7  6  1  1
  7  8  1  0
  8  9  1  0
  9 10  1  6
  9 11  1  0
 11 12  1  1
 12 13  1  0
 11 14  1  0
  6 15  1  0
 15 16  2  0
 16 17  1  0
 16  2  1  0
 14  7  1  0
M  END
$$$$
