
     RDKit          3D

 28 29  0  0  0  0  0  0  0  0999 V2000
  -25.9076   -4.0279  -34.6855 C   0  0  0  0  0  0  0  0  0  0  0  0
  -24.6933   -3.2463  -34.6850 N   0  0  0  0  0  0  0  0  0  0  0  0
  -23.9088   -3.4071  -33.5051 C   0  0  0  0  0  0  0  0  0  0  0  0
  -24.1789   -2.4226  -32.4018 C   0  0  0  0  0  0  0  0  0  0  0  0
  -24.4484   -1.1050  -32.8236 N   0  0  0  0  0  0  0  0  0  0  0  0
  -23.2636   -0.3062  -33.1587 C   0  0  0  0  0  0  0  0  0  0  0  0
  -22.4713    0.0299  -31.9964 C   0  0  0  0  0  0  0  0  0  0  0  0
  -22.9145   -0.4255  -30.8376 O   0  0  0  0  0  0  0  0  0  0  0  0
  -21.2976    0.7814  -31.8392 N   0  0  0  0  0  0  0  0  0  0  0  0
  -20.5802    1.1332  -33.0120 C   0  0  0  0  0  0  0  0  0  0  0  0
  -20.4892    0.0622  -33.8991 C   0  0  0  0  0  0  0  0  0  0  0  0
  -19.8617    0.2714  -35.0879 C   0  0  0  0  0  0  0  0  0  0  0  0
  -19.3398    1.5268  -35.3656 C   0  0  0  0  0  0  0  0  0  0  0  0
  -19.4323    2.5771  -34.4764 C   0  0  0  0  0  0  0  0  0  0  0  0
  -20.0638    2.3835  -33.2702 C   0  0  0  0  0  0  0  0  0  0  0  0
  -20.0065    3.5649  -32.3869 C   0  0  0  0  0  0  0  0  0  0  0  0
  -19.9119    4.6553  -32.9638 O   0  0  0  0  0  0  0  0  0  0  0  0
  -20.0495    3.5465  -30.9486 N   0  0  0  0  0  0  0  0  0  0  0  0
  -20.4207    2.4499  -30.0973 C   0  0  0  0  0  0  0  0  0  0  0  0
  -20.1904    2.7232  -28.7555 C   0  0  0  0  0  0  0  0  0  0  0  0
  -20.5140    1.7780  -27.8109 C   0  0  0  0  0  0  0  0  0  0  0  0
  -21.0631    0.5787  -28.2519 C   0  0  0  0  0  0  0  0  0  0  0  0
  -21.2757    0.3410  -29.5684 N   0  0  0  0  0  0  0  0  0  0  0  0
  -20.9660    1.2491  -30.4966 C   0  0  0  0  0  0  0  0  0  0  0  0
  -25.3565   -1.0165  -33.9193 C   0  0  0  0  0  0  0  0  0  0  0  0
  -24.9075   -1.8776  -35.0729 C   0  0  0  0  0  0  0  0  0  0  0  0
  -22.7933   -0.5888  -32.8573 Cl  0  0  0  0  0  0  0  0  0  0  0  0
  -22.7939   -0.5893  -32.8575 Cl  0  0  0  0  0  0  0  0  0  0  0  0
  1  2  1  0
  2  3  1  0
  3  4  1  0
  4  5  1  0
  5  6  1  0
  6  7  1  0
  7  8  2  0
  7  9  1  0
  9 10  1  0
 10 11  2  0
 11 12  1  0
 12 13  2  0
 13 14  1  0
 14 15  2  0
 15 16  1  0
 16 17  2  0
 16 18  1  0
 18 19  1  0
 19 20  2  0
 20 21  1  0
 21 22  2  0
 22 23  1  0
 23 24  2  0
  5 25  1  0
 25 26  1  0
 26  2  1  0
 24  9  1  0
 15 10  1  0
 24 19  1  0
M  END
$$$$
