
     RDKit          3D

 34 35  0  0  0  0  0  0  0  0999 V2000
  -35.5291   12.2525  -23.7561 C   0  0  0  0  0  0  0  0  0  0  0  0
  -35.3036   13.5800  -23.3563 O   0  0  0  0  0  0  0  0  0  0  0  0
  -34.0535   14.1457  -23.5719 C   0  0  0  0  0  0  0  0  0  0  0  0
  -33.0233   13.4503  -24.1658 C   0  0  0  0  0  0  0  0  0  0  0  0
  -31.7870   14.0180  -24.3759 C   0  0  0  0  0  0  0  0  0  0  0  0
  -31.5901   15.3379  -23.9686 C   0  0  0  0  0  0  0  0  0  0  0  0
  -30.3093   16.0288  -24.1409 C   0  0  0  0  0  0  0  0  0  0  0  0
  -30.1767   16.7830  -25.4517 C   0  0  0  0  0  0  0  0  0  0  0  0
  -30.3190   15.9565  -26.5886 N   0  0  0  0  0  0  0  0  0  0  0  0
  -29.3112   15.0114  -26.8588 C   0  0  0  0  0  0  0  0  0  0  0  0
  -31.0727   16.4980  -27.6306 C   0  0  0  0  0  0  0  0  0  0  0  0
  -30.5562   17.6240  -28.4279 C   0  0  0  0  0  0  0  0  0  0  0  0
  -30.2387   18.8961  -27.7319 C   0  0  0  0  0  0  0  0  0  0  0  0
  -29.7512   19.9117  -28.6849 N   0  0  0  0  0  0  0  0  0  0  0  0
  -28.3393   19.9613  -28.9641 C   0  0  0  0  0  0  0  0  0  0  0  0
  -27.8891   21.3969  -29.0169 C   0  0  0  0  0  0  0  0  0  0  0  0
  -28.3598   22.1160  -30.2003 C   0  0  0  0  0  0  0  0  0  0  0  0
  -27.3287   22.8340  -30.7651 C   0  0  0  0  0  0  0  0  0  0  0  0
  -27.4690   23.6102  -31.8914 C   0  0  0  0  0  0  0  0  0  0  0  0
  -26.4274   24.3300  -32.4553 O   0  0  0  0  0  0  0  0  0  0  0  0
  -25.1605   24.2337  -31.8071 C   0  0  0  0  0  0  0  0  0  0  0  0
  -28.7149   23.6700  -32.4852 C   0  0  0  0  0  0  0  0  0  0  0  0
  -28.8448   24.4550  -33.6196 O   0  0  0  0  0  0  0  0  0  0  0  0
  -30.0937   24.5504  -34.2653 C   0  0  0  0  0  0  0  0  0  0  0  0
  -29.7890   22.9651  -31.9564 C   0  0  0  0  0  0  0  0  0  0  0  0
  -29.5952   22.1974  -30.8204 C   0  0  0  0  0  0  0  0  0  0  0  0
  -30.8517   21.5504  -30.4537 C   0  0  0  0  0  0  0  0  0  0  0  0
  -30.7749   20.7208  -29.2181 C   0  0  0  0  0  0  0  0  0  0  0  0
  -31.8201   20.7188  -28.4746 O   0  0  0  0  0  0  0  0  0  0  0  0
  -32.6359   16.0282  -23.3718 C   0  0  0  0  0  0  0  0  0  0  0  0
  -33.8727   15.4694  -23.1582 C   0  0  0  0  0  0  0  0  0  0  0  0
  -34.9276   16.1635  -22.5568 O   0  0  0  0  0  0  0  0  0  0  0  0
  -34.7231   17.4975  -22.1471 C   0  0  0  0  0  0  0  0  0  0  0  0
  -30.8256   18.2762  -27.2488 Cl  0  0  0  0  0  0  0  0  0  0  0  0
  1  2  1  0
  2  3  1  0
  3  4  2  0
  4  5  1  0
  5  6  2  0
  6  7  1  0
  7  8  1  0
  8  9  1  0
  9 10  1  0
  9 11  1  0
 11 12  1  0
 12 13  1  0
 13 14  1  0
 14 15  1  0
 15 16  1  0
 16 17  1  0
 17 18  2  0
 18 19  1  0
 19 20  1  0
 20 21  1  0
 19 22  2  0
 22 23  1  0
 23 24  1  0
 22 25  1  0
 25 26  2  0
 26 27  1  0
 27 28  1  0
 28 29  2  0
  6 30  1  0
 30 31  2  0
 31 32  1  0
 32 33  1  0
 31  3  1  0
 28 14  1  0
 26 17  1  0
M  END
$$$$
