
     RDKit          3D

 20 22  0  0  0  0  0  0  0  0999 V2000
  -20.8245   32.8338  -22.5608 O   0  0  0  0  0  0  0  0  0  0  0  0
  -20.0227   33.9349  -22.2773 C   0  0  0  0  0  0  0  0  0  0  0  0
  -18.6967   33.8803  -22.5928 C   0  0  0  0  0  0  0  0  0  0  0  0
  -17.8955   34.9887  -22.3061 C   0  0  0  0  0  0  0  0  0  0  0  0
  -18.3656   36.1328  -21.7231 C   0  0  0  0  0  0  0  0  0  0  0  0
  -17.5418   37.2322  -21.4195 N   0  0  0  0  0  0  0  0  0  0  0  0
  -17.8303   38.5784  -21.7623 C   0  0  0  0  0  0  0  0  0  0  0  0
  -17.1532   39.6712  -21.7250 N   0  0  0  0  0  0  0  0  0  0  0  0
  -17.6133   40.8073  -22.1145 C   0  0  0  0  0  0  0  0  0  0  0  0
  -16.7912   42.0543  -22.0546 C   0  0  0  0  0  0  0  0  0  0  0  0
  -17.0363   43.1141  -22.8773 C   0  0  0  0  0  0  0  0  0  0  0  0
  -16.2826   44.2741  -22.8316 C   0  0  0  0  0  0  0  0  0  0  0  0
  -15.2589   44.3326  -21.9170 C   0  0  0  0  0  0  0  0  0  0  0  0
  -14.2945   45.7879  -21.8442 Cl  0  0  0  0  0  0  0  0  0  0  0  0
  -14.9686   43.2917  -21.0631 C   0  0  0  0  0  0  0  0  0  0  0  0
  -15.7593   42.1696  -21.1643 C   0  0  0  0  0  0  0  0  0  0  0  0
  -18.8882   40.8771  -22.5970 C   0  0  0  0  0  0  0  0  0  0  0  0
  -19.3935   39.1709  -22.4521 S   0  0  0  0  0  0  0  0  0  0  0  0
  -19.7272   36.1453  -21.4176 C   0  0  0  0  0  0  0  0  0  0  0  0
  -20.5392   35.0663  -21.6900 C   0  0  0  0  0  0  0  0  0  0  0  0
  1  2  1  0
  2  3  2  0
  3  4  1  0
  4  5  2  0
  5  6  1  0
  6  7  1  0
  7  8  2  0
  8  9  1  0
  9 10  1  0
 10 11  2  0
 11 12  1  0
 12 13  2  0
 13 14  1  0
 13 15  1  0
 15 16  2  0
  9 17  2  0
 17 18  1  0
  5 19  1  0
 19 20  2  0
 20  2  1  0
 18  7  1  0
 16 10  1  0
M  END
$$$$
