
     RDKit          3D

 23 26  0  0  0  0  0  0  0  0999 V2000
  -16.5271   42.2491  -21.0020 C   0  0  0  0  0  0  0  0  0  0  0  0
  -16.4157   41.6439  -19.7710 C   0  0  0  0  0  0  0  0  0  0  0  0
  -16.9447   40.4404  -19.4677 N   0  0  0  0  0  0  0  0  0  0  0  0
  -17.6340   39.7824  -20.4448 C   0  0  0  0  0  0  0  0  0  0  0  0
  -17.7897   40.3183  -21.6978 C   0  0  0  0  0  0  0  0  0  0  0  0
  -18.5264   39.5987  -22.7172 C   0  0  0  0  0  0  0  0  0  0  0  0
  -18.8552   38.3133  -22.5930 N   0  0  0  0  0  0  0  0  0  0  0  0
  -19.5589   37.5998  -23.5495 C   0  0  0  0  0  0  0  0  0  0  0  0
  -19.8393   36.2565  -23.3148 N   0  0  0  0  0  0  0  0  0  0  0  0
  -19.6939   35.2954  -22.3105 C   0  0  0  0  0  0  0  0  0  0  0  0
  -18.9357   34.0388  -22.6899 C   0  0  0  0  0  0  0  0  0  0  0  0
  -19.7856   32.8699  -23.0284 C   0  0  0  0  0  0  0  0  0  0  0  0
  -20.4867   32.4027  -21.7680 C   0  0  0  0  0  0  0  0  0  0  0  0
  -20.8245   33.6302  -20.9180 C   0  0  0  0  0  0  0  0  0  0  0  0
  -21.1103   34.7350  -21.9097 C   0  0  0  0  0  0  0  0  0  0  0  0
  -19.8963   38.3236  -24.6525 C   0  0  0  0  0  0  0  0  0  0  0  0
  -20.5787   37.7551  -25.7040 C   0  0  0  0  0  0  0  0  0  0  0  0
  -20.9126   38.4651  -26.8259 C   0  0  0  0  0  0  0  0  0  0  0  0
  -20.5875   39.8063  -26.9849 C   0  0  0  0  0  0  0  0  0  0  0  0
  -19.9079   40.3872  -25.9512 C   0  0  0  0  0  0  0  0  0  0  0  0
  -19.5628   39.6818  -24.8103 C   0  0  0  0  0  0  0  0  0  0  0  0
  -18.8851   40.2688  -23.8259 N   0  0  0  0  0  0  0  0  0  0  0  0
  -17.2405   41.5408  -21.9722 C   0  0  0  0  0  0  0  0  0  0  0  0
  1  2  2  0
  2  3  1  0
  3  4  2  0
  4  5  1  0
  5  6  1  0
  6  7  2  0
  7  8  1  0
  8  9  1  0
  9 10  1  0
 10 11  1  0
 11 12  1  0
 12 13  1  0
 13 14  1  0
 14 15  1  0
  8 16  2  0
 16 17  1  0
 17 18  2  0
 18 19  1  0
 19 20  2  0
 20 21  1  0
 21 22  2  0
  5 23  2  0
 23  1  1  0
 22  6  1  0
 15 10  1  0
 21 16  1  0
M  END
$$$$
