
     RDKit          3D

 28 30  0  0  0  0  0  0  0  0999 V2000
  -17.8589   16.3580  -33.6928 Cl  0  0  0  0  0  0  0  0  0  0  0  0
  -16.8432   16.0810  -29.2266 N   0  0  0  0  0  0  0  0  0  0  0  0
  -16.7166   16.3967  -30.3648 C   0  0  0  0  0  0  0  0  0  0  0  0
  -16.5427   16.7867  -31.7272 C   0  0  0  0  0  0  0  0  0  0  0  0
  -16.9942   15.9390  -32.7596 C   0  0  0  0  0  0  0  0  0  0  0  0
  -17.6456   14.6856  -32.3280 C   0  0  0  0  0  0  0  0  0  0  0  0
  -17.6781   13.5767  -33.3232 C   0  0  0  0  0  0  0  0  0  0  0  0
  -19.0835   12.9822  -33.3524 C   0  0  0  0  0  0  0  0  0  0  0  0
  -19.5191   12.5076  -32.0691 N   0  0  0  0  0  0  0  0  0  0  0  0
  -19.3608   13.5484  -31.0526 C   0  0  0  0  0  0  0  0  0  0  0  0
  -19.0008   14.8698  -31.7023 C   0  0  0  0  0  0  0  0  0  0  0  0
  -16.7763   16.3402  -34.0335 C   0  0  0  0  0  0  0  0  0  0  0  0
  -16.1366   17.5316  -34.3815 C   0  0  0  0  0  0  0  0  0  0  0  0
  -15.9195   17.8775  -35.7834 C   0  0  0  0  0  0  0  0  0  0  0  0
  -14.6875   17.7057  -36.3738 C   0  0  0  0  0  0  0  0  0  0  0  0
  -13.6263   17.2295  -35.6141 O   0  0  0  0  0  0  0  0  0  0  0  0
  -14.4666   17.9889  -37.6977 C   0  0  0  0  0  0  0  0  0  0  0  0
  -15.4963   18.4600  -38.4781 C   0  0  0  0  0  0  0  0  0  0  0  0
  -16.7280   18.6345  -37.8976 C   0  0  0  0  0  0  0  0  0  0  0  0
  -16.9962   18.3572  -36.5470 C   0  0  0  0  0  0  0  0  0  0  0  0
  -18.1505   18.5161  -35.9876 O   0  0  0  0  0  0  0  0  0  0  0  0
  -19.3809   18.7504  -35.6578 C   0  0  0  0  0  0  0  0  0  0  0  0
  -20.4194   17.8867  -36.3942 C   0  0  0  0  0  0  0  0  0  0  0  0
  -20.4346   18.0453  -37.8470 C   0  0  0  0  0  0  0  0  0  0  0  0
  -21.5909   18.5420  -37.0463 C   0  0  0  0  0  0  0  0  0  0  0  0
  -15.7251   18.3114  -33.3693 N   0  0  0  0  0  0  0  0  0  0  0  0
  -15.9150   17.9630  -32.0761 C   0  0  0  0  0  0  0  0  0  0  0  0
  -15.4804   18.8148  -31.0168 N   0  0  0  0  0  0  0  0  0  0  0  0
  2  3  3  0
  3  4  1  0
  4  5  2  0
  5  6  1  0
  6  7  1  0
  7  8  1  0
  8  9  1  0
  9 10  1  0
 10 11  1  0
  5 12  1  0
 12 13  2  0
 13 14  1  0
 14 15  2  0
 15 16  1  0
 15 17  1  0
 17 18  2  0
 18 19  1  0
 19 20  2  0
 20 21  1  0
 21 22  1  0
 22 23  1  0
 23 24  1  0
 24 25  1  0
 13 26  1  0
 26 27  2  0
 27 28  1  0
 27  4  1  0
 11  6  1  0
 20 14  1  0
 25 23  1  0
M  END
$$$$
