
     RDKit          3D

 35 40  0  0  0  0  0  0  0  0999 V2000
  -19.8555   23.5394  -35.7897 O   0  0  0  0  0  0  0  0  0  0  0  0
  -21.0914   23.7461  -35.9887 C   0  0  0  0  0  0  0  0  0  0  0  0
  -22.0172   23.5302  -34.8888 C   0  0  0  0  0  0  0  0  0  0  0  0
  -22.1069   24.4345  -33.8571 C   0  0  0  0  0  0  0  0  0  0  0  0
  -22.9783   24.2384  -32.7939 C   0  0  0  0  0  0  0  0  0  0  0  0
  -23.7830   23.1219  -32.7460 C   0  0  0  0  0  0  0  0  0  0  0  0
  -24.6738   22.8540  -31.6846 N   0  0  0  0  0  0  0  0  0  0  0  0
  -24.5990   21.5960  -31.0001 C   0  0  0  0  0  0  0  0  0  0  0  0
  -25.2486   21.3699  -29.8465 N   0  0  0  0  0  0  0  0  0  0  0  0
  -25.1662   20.1672  -29.2104 C   0  0  0  0  0  0  0  0  0  0  0  0
  -24.4051   19.1537  -29.7497 C   0  0  0  0  0  0  0  0  0  0  0  0
  -23.7483   19.3994  -30.9271 C   0  0  0  0  0  0  0  0  0  0  0  0
  -22.9351   18.3320  -31.5167 C   0  0  0  0  0  0  0  0  0  0  0  0
  -22.8292   17.0059  -31.3085 C   0  0  0  0  0  0  0  0  0  0  0  0
  -21.9535   16.2913  -32.0499 C   0  0  0  0  0  0  0  0  0  0  0  0
  -21.7128   14.8983  -31.9622 C   0  0  0  0  0  0  0  0  0  0  0  0
  -20.7850   14.3152  -32.7860 C   0  0  0  0  0  0  0  0  0  0  0  0
  -20.0378   14.9892  -33.7267 C   0  0  0  0  0  0  0  0  0  0  0  0
  -20.2746   16.3425  -33.8086 C   0  0  0  0  0  0  0  0  0  0  0  0
  -21.2116   16.9388  -32.9782 C   0  0  0  0  0  0  0  0  0  0  0  0
  -21.7141   18.6204  -32.8586 S   0  0  0  0  0  0  0  0  0  0  0  0
  -23.8670   20.5868  -31.4969 N   0  0  0  0  0  0  0  0  0  0  0  0
  -23.6927   22.2117  -33.7866 C   0  0  0  0  0  0  0  0  0  0  0  0
  -22.8200   22.4149  -34.8430 C   0  0  0  0  0  0  0  0  0  0  0  0
  -21.4625   24.1750  -37.2847 N   0  0  0  0  0  0  0  0  0  0  0  0
  -22.8491   24.4345  -37.6353 C   0  0  0  0  0  0  0  0  0  0  0  0
  -23.2545   23.7123  -38.9168 C   0  0  0  0  0  0  0  0  0  0  0  0
  -22.1713   23.7371  -39.9570 C   0  0  0  0  0  0  0  0  0  0  0  0
  -22.7754   23.9172  -41.2546 N   0  0  0  0  0  0  0  0  0  0  0  0
  -24.1118   23.4150  -41.3451 C   0  0  0  0  0  0  0  0  0  0  0  0
  -24.0617   22.2277  -42.2974 C   0  0  0  0  0  0  0  0  0  0  0  0
  -22.9591   22.6532  -43.2463 C   0  0  0  0  0  0  0  0  0  0  0  0
  -22.0096   23.3493  -42.3260 C   0  0  0  0  0  0  0  0  0  0  0  0
  -21.1683   24.8024  -39.6279 C   0  0  0  0  0  0  0  0  0  0  0  0
  -20.4726   24.3755  -38.3239 C   0  0  0  0  0  0  0  0  0  0  0  0
  1  2  2  0
  2  3  1  0
  3  4  2  0
  4  5  1  0
  5  6  2  0
  6  7  1  0
  7  8  1  0
  8  9  2  0
  9 10  1  0
 10 11  2  0
 11 12  1  0
 12 13  1  0
 13 14  2  0
 14 15  1  0
 15 16  2  0
 16 17  1  0
 17 18  2  0
 18 19  1  0
 19 20  2  0
 20 21  1  0
 12 22  2  0
  6 23  1  0
 23 24  2  0
  2 25  1  0
 25 26  1  0
 26 27  1  0
 27 28  1  0
 28 29  1  0
 29 30  1  0
 30 31  1  0
 31 32  1  0
 32 33  1  0
 28 34  1  0
 34 35  1  0
 24  3  1  0
 35 25  1  0
 22  8  1  0
 33 29  1  0
 21 13  1  0
 20 15  1  0
M  END
$$$$
