
     RDKit          3D

 25 27  0  0  0  0  0  0  0  0999 V2000
  -20.8015   17.1127  -32.9899 C   0  0  0  0  0  0  0  0  0  0  0  0
  -19.5024   17.2006  -33.7618 C   0  0  0  0  0  0  0  0  0  0  0  0
  -18.3523   17.1401  -32.8990 N   0  0  0  0  0  4  0  0  0  0  0  0
  -17.8253   15.9450  -32.6557 C   0  0  0  0  0  0  0  0  0  0  0  0
  -18.3875   14.7473  -33.2427 C   0  0  0  0  0  0  0  0  0  0  0  0
  -19.3681   14.0783  -32.5396 C   0  0  0  0  0  0  0  0  0  0  0  0
  -19.9709   12.9276  -33.0066 C   0  0  0  0  0  0  0  0  0  0  0  0
  -19.5844   12.4045  -34.2402 C   0  0  0  0  0  0  0  0  0  0  0  0
  -18.6051   13.0834  -34.9290 C   0  0  0  0  0  0  0  0  0  0  0  0
  -18.0137   14.2304  -34.4491 C   0  0  0  0  0  0  0  0  0  0  0  0
  -16.7140   15.7750  -31.8349 C   0  0  0  0  0  0  0  0  0  0  0  0
  -16.1835   14.5400  -31.5944 C   0  0  0  0  0  0  0  0  0  0  0  0
  -15.0910   14.3505  -30.7905 C   0  0  0  0  0  0  0  0  0  0  0  0
  -14.5475   13.0362  -30.5506 N   0  0  0  0  0  0  0  0  0  0  0  0
  -14.5198   15.4615  -30.2116 C   0  0  0  0  0  0  0  0  0  0  0  0
  -15.0199   16.7415  -30.4231 C   0  0  0  0  0  0  0  0  0  0  0  0
  -16.1191   16.8893  -31.2375 C   0  0  0  0  0  0  0  0  0  0  0  0
  -16.6728   18.1318  -31.4945 C   0  0  0  0  0  0  0  0  0  0  0  0
  -16.1150   19.2406  -30.9219 C   0  0  0  0  0  0  0  0  0  0  0  0
  -16.7096   20.4790  -31.2058 C   0  0  0  0  0  0  0  0  0  0  0  0
  -17.8055   20.5677  -32.0249 C   0  0  0  0  0  0  0  0  0  0  0  0
  -18.3771   21.8345  -32.2873 N   0  0  0  0  0  0  0  0  0  0  0  0
  -18.3556   19.4481  -32.5933 C   0  0  0  0  0  0  0  0  0  0  0  0
  -17.7939   18.2203  -32.3333 C   0  0  0  0  0  0  0  0  0  0  0  0
  -17.7327   16.3935  -32.3340 Br  0  0  0  0  0 15  0  0  0  0  0  0
  1  2  1  0
  2  3  1  0
  3  4  2  0
  4  5  1  0
  5  6  2  0
  6  7  1  0
  7  8  2  0
  8  9  1  0
  9 10  2  0
  4 11  1  0
 11 12  2  0
 12 13  1  0
 13 14  1  0
 13 15  2  0
 15 16  1  0
 16 17  2  0
 17 18  1  0
 18 19  2  0
 19 20  1  0
 20 21  2  0
 21 22  1  0
 21 23  1  0
 23 24  2  0
 24  3  1  0
 10  5  1  0
 17 11  1  0
 24 18  1  0
M  CHG  2   3   1  25  -1
M  END
$$$$
