
     RDKit          3D

 37 41  0  0  0  0  0  0  0  0999 V2000
  -18.8771   31.1831  -19.6088 C   0  0  0  0  0  0  0  0  0  0  0  0
  -19.1211   31.4357  -20.9680 O   0  0  0  0  0  0  0  0  0  0  0  0
  -19.2039   32.6977  -21.5289 C   0  0  0  0  0  0  0  0  0  0  0  0
  -18.5979   33.7954  -20.9619 C   0  0  0  0  0  0  0  0  0  0  0  0
  -18.6685   35.0712  -21.5099 C   0  0  0  0  0  0  0  0  0  0  0  0
  -18.0502   36.1631  -20.8642 N   0  0  0  0  0  0  0  0  0  0  0  0
  -18.2086   37.5244  -21.1921 C   0  0  0  0  0  0  0  0  0  0  0  0
  -17.6897   38.4315  -20.3145 N   0  0  0  0  0  0  0  0  0  0  0  0
  -17.7197   39.7399  -20.4816 C   0  0  0  0  0  0  0  0  0  0  0  0
  -18.3151   40.2745  -21.6231 C   0  0  0  0  0  0  0  0  0  0  0  0
  -18.8328   39.3594  -22.4985 C   0  0  0  0  0  0  0  0  0  0  0  0
  -18.7869   38.0089  -22.2974 N   0  0  0  0  0  0  0  0  0  0  0  0
  -19.4918   39.6635  -23.7906 C   0  0  0  0  0  0  0  0  0  0  0  0
  -19.8583   38.5215  -24.4383 C   0  0  0  0  0  0  0  0  0  0  0  0
  -20.4973   38.6206  -25.6720 C   0  0  0  0  0  0  0  0  0  0  0  0
  -20.7765   39.8315  -26.2709 C   0  0  0  0  0  0  0  0  0  0  0  0
  -21.5811   39.8898  -27.8219 Cl  0  0  0  0  0  0  0  0  0  0  0  0
  -20.3943   40.9715  -25.5949 C   0  0  0  0  0  0  0  0  0  0  0  0
  -19.7622   40.8935  -24.3749 C   0  0  0  0  0  0  0  0  0  0  0  0
  -19.4283   42.1986  -23.8303 C   0  0  0  0  0  0  0  0  0  0  0  0
  -19.7998   43.3558  -24.6152 C   0  0  0  0  0  0  0  0  0  0  0  0
  -21.1378   43.6865  -24.6697 C   0  0  0  0  0  0  0  0  0  0  0  0
  -22.0661   42.9288  -23.9979 F   0  0  0  0  0  0  0  0  0  0  0  0
  -21.6080   44.7679  -25.3826 C   0  0  0  0  0  0  0  0  0  0  0  0
  -20.6534   45.5228  -26.0560 C   0  0  0  0  0  0  0  0  0  0  0  0
  -19.3189   45.2029  -26.0089 C   0  0  0  0  0  0  0  0  0  0  0  0
  -18.8689   44.1165  -25.2896 C   0  0  0  0  0  0  0  0  0  0  0  0
  -17.5052   43.7959  -25.2460 O   0  0  0  0  0  0  0  0  0  0  0  0
  -16.5262   44.7884  -25.4282 C   0  0  0  0  0  0  0  0  0  0  0  0
  -18.8310   42.4315  -22.7298 N   0  0  0  0  0  0  0  0  0  0  0  0
  -18.2692   41.7304  -21.6394 C   0  0  0  0  0  0  0  0  0  0  0  0
  -19.3909   35.1893  -22.6750 C   0  0  0  0  0  0  0  0  0  0  0  0
  -20.0139   34.0827  -23.2651 C   0  0  0  0  0  0  0  0  0  0  0  0
  -19.9244   32.8300  -22.6951 C   0  0  0  0  0  0  0  0  0  0  0  0
  -20.5859   31.6984  -23.3330 C   0  0  0  0  0  0  0  0  0  0  0  0
  -20.0001   30.5883  -23.3008 O   0  0  0  0  0  0  0  0  0  0  0  0
  -21.8116   31.7699  -23.9680 O   0  0  0  0  0  0  0  0  0  0  0  0
  1  2  1  0
  2  3  1  0
  3  4  2  0
  4  5  1  0
  5  6  1  0
  6  7  1  0
  7  8  2  0
  8  9  1  0
  9 10  2  0
 10 11  1  0
 11 12  2  0
 11 13  1  0
 13 14  2  0
 14 15  1  0
 15 16  2  0
 16 17  1  0
 16 18  1  0
 18 19  2  0
 19 20  1  0
 20 21  1  0
 21 22  2  0
 22 23  1  0
 22 24  1  0
 24 25  2  0
 25 26  1  0
 26 27  2  0
 27 28  1  0
 28 29  1  0
 20 30  2  0
 30 31  1  0
  5 32  2  0
 32 33  1  0
 33 34  2  0
 34 35  1  0
 35 36  2  0
 35 37  1  0
 34  3  1  0
 12  7  1  0
 19 13  1  0
 27 21  1  0
 31 10  1  0
M  END
$$$$
