
     RDKit          3D

 15 14  0  0  0  0  0  0  0  0999 V2000
  -16.2655    0.4861  -33.0046 Cl  0  0  0  0  0  0  0  0  0  0  0  0
  -16.2667    0.4858  -33.0053 Cl  0  0  0  0  0  0  0  0  0  0  0  0
  -13.7707    3.5125  -31.4113 Cl  0  0  0  0  0  0  0  0  0  0  0  0
  -14.2855    1.9108  -31.8846 C   0  0  0  0  0  0  0  0  0  0  0  0
  -13.4294    0.8647  -31.6461 C   0  0  0  0  0  0  0  0  0  0  0  0
  -13.8303   -0.3989  -32.0172 C   0  0  0  0  0  0  0  0  0  0  0  0
  -15.0656   -0.6253  -32.6181 C   0  0  0  0  0  0  0  0  0  0  0  0
  -15.9414    0.4275  -32.8647 C   0  0  0  0  0  0  0  0  0  0  0  0
  -17.2066    0.2268  -33.4779 N   0  0  0  0  0  0  0  0  0  0  0  0
  -17.6695   -1.0512  -33.9401 C   0  0  0  0  0  0  0  0  0  0  0  0
  -18.6531   -0.9776  -35.0551 C   0  0  0  0  0  0  0  0  0  0  0  0
  -19.5519    0.1156  -35.0424 N   0  0  0  0  0  0  0  0  0  0  0  0
  -19.5015    0.9800  -33.9115 C   0  0  0  0  0  0  0  0  0  0  0  0
  -18.0673    1.3734  -33.6385 C   0  0  0  0  0  0  0  0  0  0  0  0
  -15.5000    1.6742  -32.4775 C   0  0  0  0  0  0  0  0  0  0  0  0
  3  4  1  0
  4  5  2  0
  5  6  1  0
  6  7  2  0
  7  8  1  0
  8  9  1  0
  9 10  1  0
 10 11  1  0
 11 12  1  0
 12 13  1  0
 13 14  1  0
  8 15  2  0
 15  4  1  0
 14  9  1  0
M  END
$$$$
