
     RDKit          3D

 22 22  0  0  0  0  0  0  0  0999 V2000
  -16.9370   18.3494  -10.7966 C   0  0  0  0  0  0  0  0  0  0  0  0
  -18.0850   18.7810  -11.6275 C   0  0  0  0  0  0  0  0  0  0  0  0
  -18.1092   19.8198  -12.4165 C   0  0  0  0  0  0  0  0  0  0  0  0
  -17.0305   20.7269  -12.6202 C   0  0  0  0  0  0  0  0  0  0  0  0
  -16.6542   21.7721  -11.9579 C   0  0  0  0  0  0  0  0  0  0  0  0
  -15.4047   22.4652  -12.3584 C   0  0  0  0  0  0  0  0  0  0  0  0
  -14.3547   21.7169  -13.0532 C   0  0  0  0  0  0  0  0  0  0  0  0
  -15.2826   23.7281  -12.0794 C   0  0  0  0  0  0  0  0  0  0  0  0
  -14.1572   24.2940  -11.3631 C   0  0  0  0  0  0  0  0  0  0  0  0
  -13.5687   25.3736  -11.7935 C   0  0  0  0  0  0  0  0  0  0  0  0
  -12.4010   25.9915  -11.2412 C   0  0  0  0  0  0  0  0  0  0  0  0
  -11.5385   25.3353  -10.2564 C   0  0  0  0  0  0  0  0  0  0  0  0
  -12.0242   27.2289  -11.6031 C   0  0  0  0  0  0  0  0  0  0  0  0
  -11.2041   28.0616  -10.7507 C   0  0  0  0  0  0  0  0  0  0  0  0
  -10.0497   27.6022  -10.4472 O   0  0  0  0  0  0  0  0  0  0  0  0
  -11.5147   29.2807  -10.2305 O   0  0  0  0  0  0  0  0  0  0  0  0
  -19.4132   20.0472  -13.1477 C   0  0  0  0  0  0  0  0  0  0  0  0
  -19.4021   21.4376  -13.7420 C   0  0  0  0  0  0  0  0  0  0  0  0
  -19.6489   19.0824  -14.2523 C   0  0  0  0  0  0  0  0  0  0  0  0
  -20.5885   20.0504  -12.1567 C   0  0  0  0  0  0  0  0  0  0  0  0
  -20.5707   18.7800  -11.3345 C   0  0  0  0  0  0  0  0  0  0  0  0
  -19.3522   17.9629  -11.5912 C   0  0  0  0  0  0  0  0  0  0  0  0
  1  2  1  0
  2  3  2  0
  3  4  1  0
  4  5  2  0
  5  6  1  0
  6  7  1  0
  6  8  2  0
  8  9  1  0
  9 10  2  0
 10 11  1  0
 11 12  1  0
 11 13  2  0
 13 14  1  0
 14 15  2  0
 14 16  1  0
  3 17  1  0
 17 18  1  0
 17 19  1  0
 17 20  1  0
 20 21  1  0
 21 22  1  0
 22  2  1  0
M  END
$$$$
