
     RDKit          3D

 14 16  0  0  0  0  0  0  0  0999 V2000
  -19.1389   42.8119  -24.6604 C   0  0  0  0  0  0  0  0  0  0  0  0
  -19.6684   43.9466  -24.0454 C   0  0  0  0  0  0  0  0  0  0  0  0
  -19.0633   44.4050  -22.9004 C   0  0  0  0  0  0  0  0  0  0  0  0
  -17.9662   43.7366  -22.4030 C   0  0  0  0  0  0  0  0  0  0  0  0
  -17.1918   43.9707  -21.3087 N   0  0  0  0  0  0  0  0  0  0  0  0
  -16.2358   43.0507  -21.2306 C   0  0  0  0  0  0  0  0  0  0  0  0
  -15.1810   42.9484  -20.1836 C   0  0  0  0  0  0  0  0  0  0  0  0
  -15.3967   43.4116  -18.8655 C   0  0  0  0  0  0  0  0  0  0  0  0
  -13.8297   43.0435  -18.0585 S   0  0  0  0  0  0  0  0  0  0  0  0
  -13.1256   42.3140  -19.6499 C   0  0  0  0  0  0  0  0  0  0  0  0
  -13.9734   42.4377  -20.3477 N   0  0  0  0  0  0  0  0  0  0  0  0
  -16.3948   42.2352  -22.2631 N   0  0  0  0  0  0  0  0  0  0  0  0
  -17.4472   42.6104  -23.0203 C   0  0  0  0  0  0  0  0  0  0  0  0
  -18.0443   42.1405  -24.1687 C   0  0  0  0  0  0  0  0  0  0  0  0
  1  2  2  0
  2  3  1  0
  3  4  2  0
  4  5  1  0
  5  6  1  0
  6  7  1  0
  7  8  2  0
  8  9  1  0
  9 10  1  0
 10 11  2  0
  6 12  2  0
 12 13  1  0
 13 14  2  0
 14  1  1  0
 13  4  1  0
 11  7  1  0
M  END
$$$$
