
     RDKit          3D

 32 35  0  0  0  0  0  0  0  0999 V2000
  -22.2372   31.7856  -20.8734 C   0  0  0  0  0  0  0  0  0  0  0  0
  -21.8188   32.3674  -22.1156 O   0  0  0  0  0  0  0  0  0  0  0  0
  -20.6985   33.1771  -22.1314 C   0  0  0  0  0  0  0  0  0  0  0  0
  -20.8041   34.4918  -22.4925 C   0  0  0  0  0  0  0  0  0  0  0  0
  -19.6663   35.2906  -22.5005 C   0  0  0  0  0  0  0  0  0  0  0  0
  -18.4454   34.7785  -22.1523 C   0  0  0  0  0  0  0  0  0  0  0  0
  -17.2400   35.6361  -22.1298 C   0  0  0  0  0  0  0  0  0  0  0  0
  -17.5044   37.0223  -21.8493 N   0  0  0  0  0  0  0  0  0  0  0  0
  -17.3358   38.0394  -22.8061 C   0  0  0  0  0  0  0  0  0  0  0  0
  -16.9549   37.6763  -23.9760 O   0  0  0  0  0  0  0  0  0  0  0  0
  -17.5506   39.4376  -22.5966 C   0  0  0  0  0  0  0  0  0  0  0  0
  -16.7275   40.1357  -21.6989 C   0  0  0  0  0  0  0  0  0  0  0  0
  -16.9383   41.4767  -21.4758 C   0  0  0  0  0  0  0  0  0  0  0  0
  -16.1138   42.2605  -20.5649 C   0  0  0  0  0  0  0  0  0  0  0  0
  -15.9758   43.6052  -20.7143 C   0  0  0  0  0  0  0  0  0  0  0  0
  -15.2063   44.3084  -19.8395 N   0  0  0  0  0  0  0  0  0  0  0  0
  -14.5803   43.6865  -18.8303 C   0  0  0  0  0  0  0  0  0  0  0  0
  -14.6825   42.3210  -18.6279 C   0  0  0  0  0  0  0  0  0  0  0  0
  -13.9622   41.6950  -17.4815 C   0  0  0  0  0  0  0  0  0  0  0  0
  -15.4565   41.6348  -19.5120 C   0  0  0  0  0  0  0  0  0  0  0  0
  -17.9619   42.0956  -22.1476 N   0  0  0  0  0  0  0  0  0  0  0  0
  -18.7673   41.4774  -23.0072 C   0  0  0  0  0  0  0  0  0  0  0  0
  -18.5259   40.1246  -23.2101 C   0  0  0  0  0  0  0  0  0  0  0  0
  -19.3972   39.4045  -24.2120 C   0  0  0  0  0  0  0  0  0  0  0  0
  -19.6447   39.5680  -25.3742 N   0  0  0  0  0  0  0  0  0  0  0  0
  -20.4376   38.8491  -26.1247 C   0  0  0  0  0  0  0  0  0  0  0  0
  -21.0551   37.8014  -25.5418 C   0  0  0  0  0  0  0  0  0  0  0  0
  -20.3837   37.9489  -23.8046 S   0  0  0  0  0  0  0  0  0  0  0  0
  -18.3586   33.4872  -21.8018 N   0  0  0  0  0  0  0  0  0  0  0  0
  -19.4413   32.6966  -21.7861 C   0  0  0  0  0  0  0  0  0  0  0  0
  -19.2947   31.3625  -21.4147 O   0  0  0  0  0  0  0  0  0  0  0  0
  -18.1020   30.9321  -20.8166 C   0  0  0  0  0  0  0  0  0  0  0  0
  1  2  1  0
  2  3  1  0
  3  4  2  0
  4  5  1  0
  5  6  2  0
  6  7  1  0
  7  8  1  0
  8  9  1  0
  9 10  2  0
  9 11  1  0
 11 12  2  0
 12 13  1  0
 13 14  1  0
 14 15  2  0
 15 16  1  0
 16 17  2  0
 17 18  1  0
 18 19  1  0
 18 20  2  0
 13 21  2  0
 21 22  1  0
 22 23  2  0
 23 24  1  0
 24 25  2  0
 25 26  1  0
 26 27  2  0
 27 28  1  0
  6 29  1  0
 29 30  2  0
 30 31  1  0
 31 32  1  0
 30  3  1  0
 23 11  1  0
 28 24  1  0
 20 14  1  0
M  END
$$$$
