
     RDKit          3D

 19 21  0  0  0  0  0  0  0  0999 V2000
  -22.2326   31.1806  -18.2347 C   0  0  0  0  0  0  0  0  0  0  0  0
  -22.0051   32.5166  -18.5819 O   0  0  0  0  0  0  0  0  0  0  0  0
  -21.3801   32.7887  -19.8000 C   0  0  0  0  0  0  0  0  0  0  0  0
  -21.5353   31.9514  -20.8849 C   0  0  0  0  0  0  0  0  0  0  0  0
  -20.8951   32.2702  -22.0610 C   0  0  0  0  0  0  0  0  0  0  0  0
  -20.0976   33.3901  -22.2223 C   0  0  0  0  0  0  0  0  0  0  0  0
  -19.3874   33.9060  -23.2347 N   0  0  0  0  0  0  0  0  0  0  0  0
  -18.7672   35.0527  -22.8629 C   0  0  0  0  0  0  0  0  0  0  0  0
  -17.9339   35.8915  -23.7103 C   0  0  0  0  0  0  0  0  0  0  0  0
  -17.1844   35.3196  -24.5872 O   0  0  0  0  0  0  0  0  0  0  0  0
  -17.8580   37.3308  -23.6706 C   0  0  0  0  0  0  0  0  0  0  0  0
  -16.9928   37.9534  -22.7558 C   0  0  0  0  0  0  0  0  0  0  0  0
  -16.8889   39.3150  -22.6535 C   0  0  0  0  0  0  0  0  0  0  0  0
  -17.6330   40.1519  -23.4483 C   0  0  0  0  0  0  0  0  0  0  0  0
  -18.4926   39.5745  -24.3568 C   0  0  0  0  0  0  0  0  0  0  0  0
  -18.5942   38.1934  -24.4561 C   0  0  0  0  0  0  0  0  0  0  0  0
  -19.1153   35.2538  -21.5492 C   0  0  0  0  0  0  0  0  0  0  0  0
  -19.9554   34.2133  -21.1270 C   0  0  0  0  0  0  0  0  0  0  0  0
  -20.5813   33.9265  -19.9326 C   0  0  0  0  0  0  0  0  0  0  0  0
  1  2  1  0
  2  3  1  0
  3  4  2  0
  4  5  1  0
  5  6  2  0
  6  7  1  0
  7  8  1  0
  8  9  1  0
  9 10  2  0
  9 11  1  0
 11 12  2  0
 12 13  1  0
 13 14  2  0
 14 15  1  0
 15 16  2  0
  8 17  2  0
 17 18  1  0
 18 19  2  0
 19  3  1  0
 18  6  1  0
 16 11  1  0
M  END
$$$$
