
     RDKit          3D

 32 34  0  0  0  0  0  0  0  0999 V2000
  -22.3396   21.1514  -29.3784 C   0  0  0  0  0  0  0  0  0  0  0  0
  -21.7419   21.7509  -30.6099 C   0  0  0  0  0  0  0  0  0  0  0  0
  -22.8381   22.6387  -31.2268 C   0  0  0  0  0  0  0  0  0  0  0  0
  -21.4255   20.6836  -31.6091 C   0  0  0  0  0  0  0  0  0  0  0  0
  -22.3826   19.8439  -32.1360 C   0  0  0  0  0  0  0  0  0  0  0  0
  -22.0672   18.8720  -33.0579 C   0  0  0  0  0  0  0  0  0  0  0  0
  -20.7475   18.7013  -33.4968 C   0  0  0  0  0  0  0  0  0  0  0  0
  -19.7977   19.5254  -32.9820 C   0  0  0  0  0  0  0  0  0  0  0  0
  -20.1205   20.4969  -32.0591 C   0  0  0  0  0  0  0  0  0  0  0  0
  -18.6060   19.1292  -33.6111 C   0  0  0  0  0  0  0  0  0  0  0  0
  -17.0796   19.9573  -33.2582 S   0  0  0  0  0  0  0  0  0  0  0  0
  -15.9241   18.9293  -32.3141 C   0  0  0  0  0  0  0  0  0  0  0  0
  -14.4798   19.2676  -32.6711 C   0  0  0  0  0  0  0  0  0  0  0  0
  -16.0748   19.2300  -30.8315 C   0  0  0  0  0  0  0  0  0  0  0  0
  -16.1343   17.4683  -32.5588 C   0  0  0  0  0  0  0  0  0  0  0  0
  -18.8290   18.0998  -34.4860 C   0  0  0  0  0  0  0  0  0  0  0  0
  -17.9884   17.3990  -35.4805 C   0  0  0  0  0  0  0  0  0  0  0  0
  -17.8351   17.8557  -36.8544 C   0  0  0  0  0  0  0  0  0  0  0  0
  -18.1632   16.9028  -37.9589 C   0  0  0  0  0  0  0  0  0  0  0  0
  -19.1610   18.8805  -36.9149 C   0  0  0  0  0  0  0  0  0  0  0  0
  -16.8379   18.8353  -37.2469 C   0  0  0  0  0  0  0  0  0  0  0  0
  -15.9549   19.1827  -36.3463 O   0  0  0  0  0  0  0  0  0  0  0  0
  -16.6424   19.4817  -38.4298 O   0  0  0  0  0  0  0  0  0  0  0  0
  -20.1898   17.8489  -34.3900 N   0  0  0  0  0  0  0  0  0  0  0  0
  -20.9367   16.8723  -35.1250 C   0  0  0  0  0  0  0  0  0  0  0  0
  -20.6810   15.4910  -34.6731 C   0  0  0  0  0  0  0  0  0  0  0  0
  -20.4485   14.4990  -35.6308 C   0  0  0  0  0  0  0  0  0  0  0  0
  -20.1887   13.1923  -35.2815 C   0  0  0  0  0  0  0  0  0  0  0  0
  -20.1522   12.8289  -33.9606 C   0  0  0  0  0  0  0  0  0  0  0  0
  -19.8208   11.1700  -33.5250 Cl  0  0  0  0  0  0  0  0  0  0  0  0
  -20.3801   13.7955  -33.0046 C   0  0  0  0  0  0  0  0  0  0  0  0
  -20.6435   15.1202  -33.3512 C   0  0  0  0  0  0  0  0  0  0  0  0
  1  2  1  0
  2  3  1  0
  2  4  1  0
  4  5  2  0
  5  6  1  0
  6  7  2  0
  7  8  1  0
  8  9  2  0
  8 10  1  0
 10 11  1  0
 11 12  1  0
 12 13  1  0
 12 14  1  0
 12 15  1  0
 10 16  2  0
 16 17  1  0
 17 18  1  0
 18 19  1  0
 18 20  1  0
 18 21  1  0
 21 22  2  0
 21 23  1  0
 16 24  1  0
 24 25  1  0
 25 26  1  0
 26 27  2  0
 27 28  1  0
 28 29  2  0
 29 30  1  0
 29 31  1  0
 31 32  2  0
  9  4  1  0
 32 26  1  0
 24  7  1  0
M  END
$$$$
