
     RDKit          3D

 24 25  0  0  0  0  0  0  0  0999 V2000
  -16.2140   39.6654  -23.6248 C   0  0  0  0  0  0  0  0  0  0  0  0
  -17.0261   38.5990  -23.1057 N   0  0  0  0  0  0  0  0  0  0  0  0
  -17.7436   38.8006  -21.9075 C   0  0  0  0  0  0  0  0  0  0  0  0
  -17.8069   40.0082  -21.2987 N   0  0  0  0  0  0  0  0  0  0  0  0
  -18.4815   40.2337  -20.1538 C   0  0  0  0  0  0  0  0  0  0  0  0
  -18.4847   41.5440  -19.5950 N   0  0  0  0  0  0  0  0  0  0  0  0
  -17.5825   42.5650  -19.9285 C   0  0  0  0  0  0  0  0  0  0  0  0
  -16.2224   42.4717  -20.0272 C   0  0  0  0  0  0  0  0  0  0  0  0
  -15.7822   43.6894  -20.3681 N   0  0  0  0  0  0  0  0  0  0  0  0
  -14.3889   44.0215  -20.5751 C   0  0  0  0  0  0  0  0  0  0  0  0
  -13.6029   43.4585  -19.4097 C   0  0  0  0  0  0  0  0  0  0  0  0
  -14.1774   45.5278  -20.5740 C   0  0  0  0  0  0  0  0  0  0  0  0
  -13.8961   43.4175  -21.8206 C   0  0  0  0  0  0  0  0  0  0  0  0
  -13.4925   42.9526  -22.7954 N   0  0  0  0  0  0  0  0  0  0  0  0
  -16.7779   44.5420  -20.4899 N   0  0  0  0  0  0  0  0  0  0  0  0
  -17.9008   43.8862  -20.2270 C   0  0  0  0  0  0  0  0  0  0  0  0
  -19.3100   44.4141  -20.2315 C   0  0  0  0  0  0  0  0  0  0  0  0
  -19.1100   39.1911  -19.6163 N   0  0  0  0  0  0  0  0  0  0  0  0
  -19.1118   37.9603  -20.1337 C   0  0  0  0  0  0  0  0  0  0  0  0
  -18.4096   37.7690  -21.3072 C   0  0  0  0  0  0  0  0  0  0  0  0
  -18.3897   36.4232  -21.9111 C   0  0  0  0  0  0  0  0  0  0  0  0
  -18.9168   36.5317  -23.2026 F   0  0  0  0  0  0  0  0  0  0  0  0
  -17.0942   35.9230  -21.9864 F   0  0  0  0  0  0  0  0  0  0  0  0
  -19.1938   35.5338  -21.2268 F   0  0  0  0  0  0  0  0  0  0  0  0
  1  2  1  0
  2  3  1  0
  3  4  2  0
  4  5  1  0
  5  6  1  0
  6  7  1  0
  7  8  2  0
  8  9  1  0
  9 10  1  0
 10 11  1  0
 10 12  1  0
 10 13  1  0
 13 14  3  0
  9 15  1  0
 15 16  2  0
 16 17  1  0
  5 18  2  0
 18 19  1  0
 19 20  2  0
 20 21  1  0
 21 22  1  0
 21 23  1  0
 21 24  1  0
 20  3  1  0
 16  7  1  0
M  END
$$$$
