
     RDKit          3D

 25 27  0  0  0  0  0  0  0  0999 V2000
  -12.3634   12.5970  -31.0462 C   0  0  0  0  0  0  0  0  0  0  0  0
  -13.5178   13.4711  -31.4704 C   0  0  0  0  0  0  0  0  0  0  0  0
  -14.7991   13.2846  -30.9303 C   0  0  0  0  0  0  0  0  0  0  0  0
  -15.8441   14.1503  -31.2768 C   0  0  0  0  0  0  0  0  0  0  0  0
  -17.2108   14.0441  -30.7408 C   0  0  0  0  0  0  0  0  0  0  0  0
  -15.5585   15.1944  -32.1733 C   0  0  0  0  0  0  0  0  0  0  0  0
  -16.5450   16.1225  -32.5881 N   0  0  0  0  0  0  0  0  0  0  0  0
  -16.9071   17.2950  -31.8520 C   0  0  0  0  0  0  0  0  0  0  0  0
  -16.0074   17.8104  -30.9740 C   0  0  0  0  0  0  0  0  0  0  0  0
  -16.2975   19.0031  -30.2749 C   0  0  0  0  0  0  0  0  0  0  0  0
  -17.5101   19.5069  -30.5995 N   0  0  0  0  0  0  0  0  0  0  0  0
  -18.3778   19.0204  -31.4465 C   0  0  0  0  0  0  0  0  0  0  0  0
  -19.5902   19.7452  -31.7527 N   0  0  0  0  0  0  0  0  0  0  0  0
  -20.6145   19.0572  -32.4879 C   0  0  0  0  0  0  0  0  0  0  0  0
  -20.1827   18.4339  -33.6275 C   0  0  0  0  0  0  0  0  0  0  0  0
  -21.1252   17.7424  -34.3681 C   0  0  0  0  0  0  0  0  0  0  0  0
  -22.4270   17.6312  -34.0606 C   0  0  0  0  0  0  0  0  0  0  0  0
  -23.3604   16.8216  -34.8397 C   0  0  0  0  0  0  0  0  0  0  0  0
  -24.1360   16.1524  -35.4665 N   0  0  0  0  0  0  0  0  0  0  0  0
  -22.8432   18.2931  -32.8885 C   0  0  0  0  0  0  0  0  0  0  0  0
  -21.9364   19.0103  -32.0924 C   0  0  0  0  0  0  0  0  0  0  0  0
  -18.1186   17.8677  -32.1220 N   0  0  0  0  0  0  0  0  0  0  0  0
  -14.2901   15.3307  -32.6783 C   0  0  0  0  0  0  0  0  0  0  0  0
  -14.0596   16.4544  -33.6507 C   0  0  0  0  0  0  0  0  0  0  0  0
  -13.2693   14.4861  -32.3404 C   0  0  0  0  0  0  0  0  0  0  0  0
  1  2  1  0
  2  3  2  0
  3  4  1  0
  4  5  1  0
  4  6  2  0
  6  7  1  0
  7  8  1  0
  8  9  2  0
  9 10  1  0
 10 11  2  0
 11 12  1  0
 12 13  1  0
 13 14  1  0
 14 15  2  0
 15 16  1  0
 16 17  2  0
 17 18  1  0
 18 19  3  0
 17 20  1  0
 20 21  2  0
 12 22  2  0
  6 23  1  0
 23 24  1  0
 23 25  2  0
 25  2  1  0
 22  8  1  0
 21 14  1  0
M  END
$$$$
