
     RDKit          3D

 30 30  0  0  0  0  0  0  0  0999 V2000
  -38.4680   10.4915  -24.7287 C   0  0  0  0  0  0  0  0  0  0  0  0
  -37.5692   11.6577  -24.4143 C   0  0  0  0  0  0  0  0  0  0  0  0
  -38.0925   12.9029  -24.1403 C   0  0  0  0  0  0  0  0  0  0  0  0
  -37.2407   13.9572  -23.8548 C   0  0  0  0  0  0  0  0  0  0  0  0
  -35.8774   13.7061  -23.8579 C   0  0  0  0  0  0  0  0  0  0  0  0
  -35.3628   12.4655  -24.1311 C   0  0  0  0  0  0  0  0  0  0  0  0
  -33.9102   12.1509  -24.1426 C   0  0  0  0  0  0  0  0  0  0  0  0
  -33.0344   13.3137  -23.8367 C   0  0  0  0  0  0  0  0  0  0  0  0
  -33.1321   14.4259  -24.7265 N   0  0  0  0  0  0  0  0  0  0  0  0
  -32.2222   15.4487  -24.2689 C   0  0  0  0  0  0  0  0  0  0  0  0
  -31.9170   16.4997  -25.3134 C   0  0  0  0  0  0  0  0  0  0  0  0
  -31.3327   15.9107  -26.5616 C   0  0  0  0  0  0  0  0  0  0  0  0
  -29.9133   16.2402  -26.7491 C   0  0  0  0  0  0  0  0  0  0  0  0
  -29.0437   15.3213  -26.7709 O   0  0  0  0  0  0  0  0  0  0  0  0
  -29.4387   17.6135  -26.9172 C   0  0  0  0  0  0  0  0  0  0  0  0
  -28.0865   17.8851  -27.0728 C   0  0  0  0  0  0  0  0  0  0  0  0
  -27.6591   19.1762  -27.2345 C   0  0  0  0  0  0  0  0  0  0  0  0
  -28.5893   20.2255  -27.2430 C   0  0  0  0  0  0  0  0  0  0  0  0
  -28.1012   21.5268  -27.4189 N   0  0  0  0  0  0  0  0  0  0  0  0
  -28.7597   22.6358  -28.5123 S   0  0  0  0  0  6  0  0  0  0  0  0
  -30.4274   23.0676  -28.1980 C   0  0  0  0  0  0  0  0  0  0  0  0
  -28.6897   22.1211  -29.9504 O   0  0  0  0  0  0  0  0  0  0  0  0
  -27.9499   23.9286  -28.5125 O   0  0  0  0  0  0  0  0  0  0  0  0
  -29.9288   19.9724  -27.0901 C   0  0  0  0  0  0  0  0  0  0  0  0
  -30.3392   18.6450  -26.9268 C   0  0  0  0  0  0  0  0  0  0  0  0
  -31.5085   14.4104  -26.5666 C   0  0  0  0  0  0  0  0  0  0  0  0
  -32.9134   14.0964  -26.1000 C   0  0  0  0  0  0  0  0  0  0  0  0
  -36.2413   11.4853  -24.4002 N   0  0  0  0  0  0  0  0  0  0  0  0
  -32.0373   16.7038  -26.1066 Cl  0  0  0  0  0  0  0  0  0  0  0  0
  -32.0352   16.7064  -26.1076 Cl  0  0  0  0  0  0  0  0  0  0  0  0
  1  2  1  0
  2  3  2  0
  3  4  1  0
  4  5  2  0
  5  6  1  0
  6  7  1  0
  7  8  1  0
  8  9  1  0
  9 10  1  0
 10 11  1  0
 11 12  1  0
 12 13  1  0
 13 14  2  0
 13 15  1  0
 15 16  2  0
 16 17  1  0
 17 18  2  0
 18 19  1  0
 19 20  1  0
 20 21  1  0
 20 22  2  0
 20 23  2  0
 18 24  1  0
 24 25  2  0
 12 26  1  0
 26 27  1  0
  6 28  2  0
 28  2  1  0
 27  9  1  0
 25 15  1  0
M  END
$$$$
