
     RDKit          3D

 26 27  0  0  0  0  0  0  0  0999 V2000
  -12.5120   44.8228  -19.5916 C   0  0  0  0  0  0  0  0  0  0  0  0
  -13.8685   44.9336  -18.9279 C   0  0  0  0  0  0  0  0  0  0  0  0
  -14.8260   44.0910  -19.6788 C   0  0  0  0  0  0  0  0  0  0  0  0
  -15.5257   44.6567  -20.7266 C   0  0  0  0  0  0  0  0  0  0  0  0
  -16.4202   43.8866  -21.4353 C   0  0  0  0  0  0  0  0  0  0  0  0
  -16.5949   42.5727  -21.0820 C   0  0  0  0  0  0  0  0  0  0  0  0
  -17.5669   41.7493  -21.8639 C   0  0  0  0  0  0  0  0  0  0  0  0
  -16.8210   41.1227  -23.0072 C   0  0  0  0  0  0  0  0  0  0  0  0
  -17.6424   40.3218  -23.7710 O   0  0  0  0  0  0  0  0  0  0  0  0
  -18.2640   39.1583  -23.4125 C   0  0  0  0  0  0  0  0  0  0  0  0
  -18.0998   38.5858  -22.1744 C   0  0  0  0  0  0  0  0  0  0  0  0
  -18.7469   37.4033  -21.8268 C   0  0  0  0  0  0  0  0  0  0  0  0
  -19.5588   36.8157  -22.7569 C   0  0  0  0  0  0  0  0  0  0  0  0
  -20.2646   35.5549  -22.4220 C   0  0  0  0  0  0  0  0  0  0  0  0
  -19.4857   34.3291  -22.7600 C   0  0  0  0  0  0  0  0  0  0  0  0
  -17.8948   34.3398  -21.8246 S   0  0  0  0  0  0  0  0  0  0  0  0
  -18.5209   33.5363  -20.3638 C   0  0  0  0  0  0  0  0  0  0  0  0
  -17.9159   33.3336  -19.3099 O   0  0  0  0  0  0  0  0  0  0  0  0
  -19.8494   33.1880  -20.6793 N   0  0  0  0  0  0  0  0  0  0  0  0
  -20.1320   33.1706  -22.0512 C   0  0  0  0  0  0  0  0  0  0  0  0
  -20.8384   32.3177  -22.6962 O   0  0  0  0  0  0  0  0  0  0  0  0
  -19.7625   37.3394  -24.0132 C   0  0  0  0  0  0  0  0  0  0  0  0
  -19.1150   38.5039  -24.3304 C   0  0  0  0  0  0  0  0  0  0  0  0
  -15.9156   42.0203  -20.0632 N   0  0  0  0  0  0  0  0  0  0  0  0
  -15.0270   42.7771  -19.3558 C   0  0  0  0  0  0  0  0  0  0  0  0
  -16.9650   40.2442  -21.4819 Cl  0  0  0  0  0  0  0  0  0  0  0  0
  1  2  1  0
  2  3  1  0
  3  4  2  0
  4  5  1  0
  5  6  2  0
  6  7  1  0
  7  8  1  0
  8  9  1  0
  9 10  1  0
 10 11  2  0
 11 12  1  0
 12 13  2  0
 13 14  1  0
 14 15  1  0
 15 16  1  0
 16 17  1  0
 17 18  2  0
 17 19  1  0
 19 20  1  0
 20 21  2  0
 13 22  1  0
 22 23  2  0
  6 24  1  0
 24 25  2  0
 25  3  1  0
 23 10  1  0
 20 15  1  0
M  END
$$$$
