
     RDKit          3D

 21 23  0  0  0  0  0  0  0  0999 V2000
  -17.2511   23.3777  -12.7298 O   0  0  0  0  0  0  0  0  0  0  0  0
  -16.7750   22.3710  -12.1503 C   0  0  0  0  0  0  0  0  0  0  0  0
  -15.7060   22.6059  -11.2347 N   0  0  0  0  0  0  0  0  0  0  0  0
  -14.9848   23.8641  -11.2626 C   0  0  0  0  0  0  0  0  0  0  0  0
  -15.6938   25.1960  -11.8544 S   0  0  0  0  0  0  0  0  0  0  0  0
  -13.6815   23.9242  -10.7247 N   0  0  0  0  0  0  0  0  0  0  0  0
  -12.7286   24.9879  -11.1054 C   0  0  0  0  0  0  0  0  0  0  0  0
  -11.3028   24.5819  -10.9638 C   0  0  0  0  0  0  0  0  0  0  0  0
  -11.0683   23.0842  -10.8979 C   0  0  0  0  0  0  0  0  0  0  0  0
  -11.9099   22.5008   -9.8219 C   0  0  0  0  0  0  0  0  0  0  0  0
  -11.3949   21.5811   -8.9522 C   0  0  0  0  0  0  0  0  0  0  0  0
  -12.2859   21.1259   -7.9713 C   0  0  0  0  0  0  0  0  0  0  0  0
  -13.5877   21.5787   -7.8953 C   0  0  0  0  0  0  0  0  0  0  0  0
  -14.0647   22.5160   -8.8044 C   0  0  0  0  0  0  0  0  0  0  0  0
  -13.2225   22.9767   -9.7707 C   0  0  0  0  0  0  0  0  0  0  0  0
  -17.3286   21.0650  -12.4415 C   0  0  0  0  0  0  0  0  0  0  0  0
  -16.9139   19.9793  -11.7102 C   0  0  0  0  0  0  0  0  0  0  0  0
  -17.4174   18.6955  -11.9511 C   0  0  0  0  0  0  0  0  0  0  0  0
  -18.3487   18.5175  -12.9429 C   0  0  0  0  0  0  0  0  0  0  0  0
  -18.7748   19.6032  -13.6870 C   0  0  0  0  0  0  0  0  0  0  0  0
  -18.2627   20.8756  -13.4336 C   0  0  0  0  0  0  0  0  0  0  0  0
  1  2  2  0
  2  3  1  0
  3  4  1  0
  4  5  2  0
  4  6  1  0
  6  7  1  0
  7  8  1  0
  8  9  1  0
  9 10  1  0
 10 11  2  0
 11 12  1  0
 12 13  2  0
 13 14  1  0
 14 15  2  0
  2 16  1  0
 16 17  2  0
 17 18  1  0
 18 19  2  0
 19 20  1  0
 20 21  2  0
 15  6  1  0
 21 16  1  0
 15 10  1  0
M  END
$$$$
