
     RDKit          3D

 26 28  0  0  0  0  0  0  0  0999 V2000
  -45.0229    7.4032  -41.2938 C   0  0  0  0  0  0  0  0  0  0  0  0
  -43.9970    7.4799  -42.1089 C   0  0  0  0  0  0  0  0  0  0  0  0
  -44.1321    6.7867  -43.4236 C   0  0  0  0  0  0  0  0  0  0  0  0
  -43.1524    6.8576  -44.3872 C   0  0  0  0  0  0  0  0  0  0  0  0
  -43.3048    6.2784  -45.6504 C   0  0  0  0  0  0  0  0  0  0  0  0
  -44.4512    5.6054  -45.9883 C   0  0  0  0  0  0  0  0  0  0  0  0
  -44.6013    5.0034  -47.3070 C   0  0  0  0  0  0  0  0  0  0  0  0
  -43.6420    4.9921  -48.1199 O   0  0  0  0  0  0  0  0  0  0  0  0
  -45.7930    4.4250  -47.7163 O   0  0  0  0  0  0  0  0  0  0  0  0
  -45.4328    5.5301  -45.0345 C   0  0  0  0  0  0  0  0  0  0  0  0
  -45.2814    6.1126  -43.7657 C   0  0  0  0  0  0  0  0  0  0  0  0
  -42.7898    8.1475  -41.7182 C   0  0  0  0  0  0  0  0  0  0  0  0
  -42.8885    9.5455  -41.6068 C   0  0  0  0  0  0  0  0  0  0  0  0
  -41.7659   10.2948  -41.3130 C   0  0  0  0  0  0  0  0  0  0  0  0
  -40.5420    9.7249  -41.1214 C   0  0  0  0  0  0  0  0  0  0  0  0
  -40.4617    8.3670  -41.2324 C   0  0  0  0  0  0  0  0  0  0  0  0
  -41.5716    7.5499  -41.5319 C   0  0  0  0  0  0  0  0  0  0  0  0
  -41.3277    6.0797  -41.6922 C   0  0  0  0  0  0  0  0  0  0  0  0
  -39.3610   10.5412  -40.8132 C   0  0  0  0  0  0  0  0  0  0  0  0
  -38.3927    9.7081  -39.9616 C   0  0  0  0  0  0  0  0  0  0  0  0
  -38.6210   10.7738  -42.1280 C   0  0  0  0  0  0  0  0  0  0  0  0
  -39.6133   11.8737  -40.2137 C   0  0  0  0  0  0  0  0  0  0  0  0
  -41.0249   12.3162  -40.1141 C   0  0  0  0  0  0  0  0  0  0  0  0
  -41.9113   11.7576  -41.2018 C   0  0  0  0  0  0  0  0  0  0  0  0
  -43.3541   12.0525  -40.7766 C   0  0  0  0  0  0  0  0  0  0  0  0
  -41.6974   12.3770  -42.5413 C   0  0  0  0  0  0  0  0  0  0  0  0
  1  2  2  0
  2  3  1  0
  3  4  2  0
  4  5  1  0
  5  6  2  0
  6  7  1  0
  7  8  2  0
  7  9  1  0
  6 10  1  0
 10 11  2  0
  2 12  1  0
 12 13  2  0
 13 14  1  0
 14 15  2  0
 15 16  1  0
 16 17  2  0
 17 18  1  0
 15 19  1  0
 19 20  1  0
 19 21  1  0
 19 22  1  0
 22 23  1  0
 23 24  1  0
 24 25  1  0
 24 26  1  0
 11  3  1  0
 17 12  1  0
 24 14  1  0
M  END
$$$$
