
     RDKit          3D

 12 13  0  0  0  0  0  0  0  0999 V2000
  -20.6981    3.7141  -29.7129 Cl  0  0  0  0  0  0  0  0  0  0  0  0
  -20.4910    2.3511  -30.7939 C   0  0  0  0  0  0  0  0  0  0  0  0
  -21.3848    1.3023  -30.7907 C   0  0  0  0  0  0  0  0  0  0  0  0
  -21.2212    0.2333  -31.6395 C   0  0  0  0  0  0  0  0  0  0  0  0
  -20.1522    0.1537  -32.5406 C   0  0  0  0  0  0  0  0  0  0  0  0
  -19.2553    1.1986  -32.5489 C   0  0  0  0  0  0  0  0  0  0  0  0
  -19.4366    2.2806  -31.6773 C   0  0  0  0  0  0  0  0  0  0  0  0
  -18.2686    3.6002  -31.7156 Cl  0  0  0  0  0  0  0  0  0  0  0  0
  -18.0876    1.1933  -33.4790 C   0  0  0  0  0  0  0  0  0  0  0  0
  -17.9163   -0.1088  -34.0315 N   0  0  0  0  0  0  0  0  0  0  0  0
  -19.1687   -0.5848  -34.6175 C   0  0  0  0  0  0  0  0  0  0  0  0
  -20.0150   -1.0244  -33.4411 C   0  0  0  0  0  0  0  0  0  0  0  0
  1  2  1  0
  2  3  2  0
  3  4  1  0
  4  5  2  0
  5  6  1  0
  6  7  2  0
  7  8  1  0
  6  9  1  0
  9 10  1  0
 10 11  1  0
 11 12  1  0
  7  2  1  0
 12  5  1  0
M  END
$$$$
