
     RDKit          3D

 30 32  0  0  0  0  0  0  0  0999 V2000
  -16.7694   43.1128  -26.0130 O   0  0  0  0  0  0  0  0  0  0  0  0
  -17.4705   43.8594  -25.2640 C   0  0  0  0  0  0  0  0  0  0  0  0
  -18.1194   44.9705  -25.8446 N   0  0  0  0  0  0  0  0  0  0  0  0
  -17.6258   45.6160  -27.0612 C   0  0  0  0  0  0  0  0  0  0  0  0
  -18.5258   45.3731  -28.2457 C   0  0  0  0  0  0  0  0  0  0  0  0
  -19.5113   46.3560  -28.2797 O   0  0  0  0  0  0  0  0  0  0  0  0
  -17.5818   43.5495  -23.8453 C   0  0  0  0  0  0  0  0  0  0  0  0
  -17.5237   44.5977  -22.9167 C   0  0  0  0  0  0  0  0  0  0  0  0
  -17.6199   44.3625  -21.5673 C   0  0  0  0  0  0  0  0  0  0  0  0
  -17.7797   43.0637  -21.0719 C   0  0  0  0  0  0  0  0  0  0  0  0
  -17.8394   42.0228  -21.9536 C   0  0  0  0  0  0  0  0  0  0  0  0
  -18.0007   40.6439  -21.5085 C   0  0  0  0  0  0  0  0  0  0  0  0
  -17.7452   39.5742  -22.2922 C   0  0  0  0  0  0  0  0  0  0  0  0
  -17.9109   38.2557  -21.8466 C   0  0  0  0  0  0  0  0  0  0  0  0
  -17.6303   37.1673  -22.7087 N   0  0  0  0  0  0  0  0  0  0  0  0
  -17.4887   35.8623  -22.2087 C   0  0  0  0  0  0  0  0  0  0  0  0
  -17.5073   35.6649  -20.8462 C   0  0  0  0  0  0  0  0  0  0  0  0
  -17.3680   34.3789  -20.3676 C   0  0  0  0  0  0  0  0  0  0  0  0
  -17.2114   33.2891  -21.2020 C   0  0  0  0  0  0  0  0  0  0  0  0
  -17.0750   32.0145  -20.6754 O   0  0  0  0  0  0  0  0  0  0  0  0
  -15.9793   31.2212  -21.1447 C   0  0  0  0  0  0  0  0  0  0  0  0
  -15.9709   30.0242  -20.4818 F   0  0  0  0  0  0  0  0  0  0  0  0
  -14.8161   31.9140  -20.8103 F   0  0  0  0  0  0  0  0  0  0  0  0
  -16.1066   31.0502  -22.5095 F   0  0  0  0  0  0  0  0  0  0  0  0
  -17.1995   33.5398  -22.5568 C   0  0  0  0  0  0  0  0  0  0  0  0
  -17.3339   34.8005  -23.0956 C   0  0  0  0  0  0  0  0  0  0  0  0
  -18.3404   38.0996  -20.5891 N   0  0  0  0  0  0  0  0  0  0  0  0
  -18.6044   39.1469  -19.7805 C   0  0  0  0  0  0  0  0  0  0  0  0
  -18.4363   40.3962  -20.2361 N   0  0  0  0  0  0  0  0  0  0  0  0
  -17.7388   42.2906  -23.3253 C   0  0  0  0  0  0  0  0  0  0  0  0
  1  2  2  0
  2  3  1  0
  3  4  1  0
  4  5  1  0
  5  6  1  0
  2  7  1  0
  7  8  2  0
  8  9  1  0
  9 10  2  0
 10 11  1  0
 11 12  1  0
 12 13  2  0
 13 14  1  0
 14 15  1  0
 15 16  1  0
 16 17  2  0
 17 18  1  0
 18 19  2  0
 19 20  1  0
 20 21  1  0
 21 22  1  0
 21 23  1  0
 21 24  1  0
 19 25  1  0
 25 26  2  0
 14 27  2  0
 27 28  1  0
 28 29  2  0
 11 30  2  0
 30  7  1  0
 29 12  1  0
 26 16  1  0
M  END
$$$$
