
     RDKit          3D

 20 21  0  0  0  0  0  0  0  0999 V2000
  -15.3140   14.5315  -28.4596 C   0  0  0  0  0  0  0  0  0  0  0  0
  -16.5822   15.1209  -28.6805 O   0  0  0  0  0  0  0  0  0  0  0  0
  -16.8385   15.6566  -29.9470 C   0  0  0  0  0  0  0  0  0  0  0  0
  -16.3247   16.8686  -30.3447 C   0  0  0  0  0  0  0  0  0  0  0  0
  -16.5794   17.3980  -31.5997 C   0  0  0  0  0  0  0  0  0  0  0  0
  -17.3620   16.7253  -32.5013 C   0  0  0  0  0  0  0  0  0  0  0  0
  -17.6504   17.2363  -33.8086 C   0  0  0  0  0  0  0  0  0  0  0  0
  -16.7868   17.9261  -34.4178 O   0  0  0  0  0  0  0  0  0  0  0  0
  -18.9087   16.9916  -34.4704 C   0  0  0  0  0  0  0  0  0  0  0  0
  -19.1975   17.5661  -35.6014 C   0  0  0  0  0  0  0  0  0  0  0  0
  -20.4116   17.2717  -36.3359 C   0  0  0  0  0  0  0  0  0  0  0  0
  -20.8865   15.9497  -36.4218 C   0  0  0  0  0  0  0  0  0  0  0  0
  -22.0299   15.6203  -37.1048 C   0  0  0  0  0  0  0  0  0  0  0  0
  -22.7717   16.5826  -37.7441 C   0  0  0  0  0  0  0  0  0  0  0  0
  -24.2218   16.1624  -38.6099 Cl  0  0  0  0  0  0  0  0  0  0  0  0
  -22.3465   17.8859  -37.6871 C   0  0  0  0  0  0  0  0  0  0  0  0
  -21.1882   18.1990  -36.9918 C   0  0  0  0  0  0  0  0  0  0  0  0
  -17.8913   15.5023  -32.1245 C   0  0  0  0  0  0  0  0  0  0  0  0
  -18.6953   14.7568  -32.9809 O   0  0  0  0  0  0  0  0  0  0  0  0
  -17.6219   15.0022  -30.8741 C   0  0  0  0  0  0  0  0  0  0  0  0
  1  2  1  0
  2  3  1  0
  3  4  2  0
  4  5  1  0
  5  6  2  0
  6  7  1  0
  7  8  2  0
  7  9  1  0
  9 10  2  0
 10 11  1  0
 11 12  2  0
 12 13  1  0
 13 14  2  0
 14 15  1  0
 14 16  1  0
 16 17  2  0
  6 18  1  0
 18 19  1  0
 18 20  2  0
 20  3  1  0
 17 11  1  0
M  END
$$$$
