
     RDKit          3D

 26 28  0  0  0  0  0  0  0  0999 V2000
  -16.4733   38.7167  -21.7697 O   0  0  0  0  0  0  0  0  0  0  0  0
  -17.5183   38.5824  -22.4266 C   0  0  0  0  0  0  0  0  0  0  0  0
  -17.9785   39.7473  -23.2464 C   0  0  0  0  0  0  0  0  0  0  0  0
  -18.0143   40.9751  -22.4956 N   0  0  0  0  0  0  0  0  0  0  0  0
  -19.2855   41.6650  -22.6944 C   0  0  0  0  0  0  0  0  0  0  0  0
  -19.0623   43.1701  -22.8793 C   0  0  0  0  0  0  0  0  0  0  0  0
  -18.4239   43.3891  -24.1627 N   0  0  0  0  0  0  0  0  0  0  0  0
  -18.0243   44.7301  -24.4144 C   0  0  0  0  0  0  0  0  0  0  0  0
  -17.0578   44.8159  -25.5577 C   0  0  0  0  0  0  0  0  0  0  0  0
  -15.7549   45.2253  -25.3672 C   0  0  0  0  0  0  0  0  0  0  0  0
  -14.8715   45.2947  -26.4280 C   0  0  0  0  0  0  0  0  0  0  0  0
  -15.2466   44.9621  -27.7114 C   0  0  0  0  0  0  0  0  0  0  0  0
  -16.5524   44.5510  -27.9109 C   0  0  0  0  0  0  0  0  0  0  0  0
  -17.4356   44.4820  -26.8446 C   0  0  0  0  0  0  0  0  0  0  0  0
  -17.2923   42.5036  -24.2370 C   0  0  0  0  0  0  0  0  0  0  0  0
  -16.9490   41.8405  -22.9442 C   0  0  0  0  0  0  0  0  0  0  0  0
  -18.2476   37.3766  -22.3998 N   0  0  0  0  0  0  0  0  0  0  0  0
  -18.9021   36.9335  -23.5462 N   0  0  0  0  0  0  0  0  0  0  0  0
  -19.0853   35.6775  -23.7824 C   0  0  0  0  0  0  0  0  0  0  0  0
  -19.5148   34.7043  -22.7890 C   0  0  0  0  0  0  0  0  0  0  0  0
  -20.4856   33.7653  -23.0972 C   0  0  0  0  0  0  0  0  0  0  0  0
  -20.8559   32.8696  -22.1322 C   0  0  0  0  0  0  0  0  0  0  0  0
  -20.2989   32.8710  -20.8701 C   0  0  0  0  0  0  0  0  0  0  0  0
  -19.3340   33.8250  -20.6038 C   0  0  0  0  0  0  0  0  0  0  0  0
  -18.9419   34.7349  -21.5486 C   0  0  0  0  0  0  0  0  0  0  0  0
  -17.9649   35.6524  -21.1789 O   0  0  0  0  0  0  0  0  0  0  0  0
  1  2  2  0
  2  3  1  0
  3  4  1  0
  4  5  1  0
  5  6  1  0
  6  7  1  0
  7  8  1  0
  8  9  1  0
  9 10  2  0
 10 11  1  0
 11 12  2  0
 12 13  1  0
 13 14  2  0
  7 15  1  0
 15 16  1  0
  2 17  1  0
 17 18  1  0
 18 19  2  0
 19 20  1  0
 20 21  2  0
 21 22  1  0
 22 23  2  0
 23 24  1  0
 24 25  2  0
 25 26  1  0
 16  4  1  0
 25 20  1  0
 14  9  1  0
M  END
$$$$
