
     RDKit          3D

 27 27  0  0  0  0  0  0  0  0999 V2000
  -12.0896   26.4683   -9.6853 C   0  0  0  0  0  0  0  0  0  0  0  0
  -12.2610   26.7317  -11.1542 C   0  0  0  0  0  0  0  0  0  0  0  0
  -13.5286   26.1148  -11.7131 C   0  0  1  0  0  0  0  0  0  0  0  0
  -13.5861   26.4291  -13.1200 N   0  0  0  0  0  0  0  0  0  0  0  0
  -13.5664   24.6421  -11.4241 C   0  0  0  0  0  0  0  0  0  0  0  0
  -14.7638   24.0109  -11.9413 N   0  0  0  0  0  0  0  0  0  0  0  0
  -14.9168   22.6037  -11.7237 C   0  0  0  0  0  0  0  0  0  0  0  0
  -13.9699   21.8635  -11.0498 C   0  0  0  0  0  0  0  0  0  0  0  0
  -14.1255   20.5079  -10.8436 C   0  0  0  0  0  0  0  0  0  0  0  0
  -15.2447   19.9412  -11.3309 N   0  0  0  0  0  0  0  0  0  0  0  0
  -16.1937   20.6339  -11.9958 C   0  0  0  0  0  0  0  0  0  0  0  0
  -17.3783   19.9256  -12.4881 C   0  0  0  0  0  0  0  0  0  0  0  0
  -17.5615   18.5751  -12.2966 C   0  0  0  0  0  0  0  0  0  0  0  0
  -18.6483   17.8751  -12.7380 C   0  0  0  0  0  0  0  0  0  0  0  0
  -18.7955   16.4243  -12.5047 C   0  0  0  0  0  0  0  0  0  0  0  0
  -18.3300   15.7063  -11.4193 C   0  0  0  0  0  0  0  0  0  0  0  0
  -18.6703   14.4147  -11.5899 N   0  0  0  0  0  0  0  0  0  0  0  0
  -19.3284   14.2954  -12.7354 N   0  0  0  0  0  0  0  0  0  0  0  0
  -19.8805   13.0979  -13.3202 C   0  0  0  0  0  0  0  0  0  0  0  0
  -19.4151   15.5221  -13.3122 C   0  0  0  0  0  0  0  0  0  0  0  0
  -19.6326   18.5555  -13.4211 C   0  0  0  0  0  0  0  0  0  0  0  0
  -19.4841   19.9248  -13.6356 C   0  0  0  0  0  0  0  0  0  0  0  0
  -18.3673   20.5992  -13.1724 C   0  0  0  0  0  0  0  0  0  0  0  0
  -18.2985   21.9605  -13.4285 O   0  0  0  0  0  0  0  0  0  0  0  0
  -16.0001   21.9346  -12.1696 N   0  0  0  0  0  0  0  0  0  0  0  0
  -16.5572   20.4534  -12.1606 Cl  0  0  0  0  0  0  0  0  0  0  0  0
  -16.5552   20.4564  -12.1600 Cl  0  0  0  0  0  0  0  0  0  0  0  0
  1  2  1  0
  2  3  1  0
  3  4  1  6
  3  5  1  0
  5  6  1  0
  6  7  1  0
  7  8  2  0
  8  9  1  0
  9 10  2  0
 10 11  1  0
 11 12  1  0
 12 13  2  0
 13 14  1  0
 14 15  1  0
 15 16  1  0
 16 17  2  0
 17 18  1  0
 18 19  1  0
 18 20  1  0
 14 21  2  0
 21 22  1  0
 22 23  2  0
 23 24  1  0
 11 25  2  0
 25  7  1  0
 23 12  1  0
 20 15  2  0
M  END
$$$$
