
     RDKit          3D

 43 47  0  0  0  0  0  0  0  0999 V2000
  -14.7534   18.8605  -35.2370 C   0  0  0  0  0  0  0  0  0  0  0  0
  -15.3079   17.5240  -34.9065 C   0  0  0  0  0  0  0  0  0  0  0  0
  -14.8229   16.4263  -35.6237 C   0  0  0  0  0  0  0  0  0  0  0  0
  -13.8253   16.6739  -36.6253 N   0  0  0  0  0  0  0  0  0  0  0  0
  -14.3286   16.9863  -37.9256 C   0  0  0  0  0  0  0  0  0  0  0  0
  -15.5766   16.9292  -38.1138 O   0  0  0  0  0  0  0  0  0  0  0  0
  -13.4741   17.3658  -39.0345 C   0  0  0  0  0  0  0  0  0  0  0  0
  -12.8338   16.4338  -39.7960 C   0  0  0  0  0  0  0  0  0  0  0  0
  -12.0116   16.8464  -40.8482 C   0  0  0  0  0  0  0  0  0  0  0  0
  -11.8487   18.1868  -41.1153 C   0  0  0  0  0  0  0  0  0  0  0  0
  -10.9903   18.6498  -42.2169 C   0  0  0  0  0  0  0  0  0  0  0  0
  -11.6647   19.7051  -43.0592 C   0  0  0  0  0  0  0  0  0  0  0  0
  -10.7512   17.4627  -43.1499 C   0  0  0  0  0  0  0  0  0  0  0  0
   -9.6765   19.1701  -41.6795 C   0  0  0  0  0  0  0  0  0  0  0  0
  -12.5123   19.1119  -40.3255 C   0  0  0  0  0  0  0  0  0  0  0  0
  -13.3242   18.7263  -39.2870 C   0  0  0  0  0  0  0  0  0  0  0  0
  -15.3129   15.1864  -35.3579 C   0  0  0  0  0  0  0  0  0  0  0  0
  -16.2751   14.9984  -34.3955 C   0  0  0  0  0  0  0  0  0  0  0  0
  -16.7687   16.0903  -33.6711 C   0  0  0  0  0  0  0  0  0  0  0  0
  -16.2779   17.3261  -33.9395 C   0  0  0  0  0  0  0  0  0  0  0  0
  -16.7772   18.5188  -33.2362 C   0  0  0  0  0  0  0  0  0  0  0  0
  -15.9436   19.4011  -32.5593 C   0  0  0  0  0  0  0  0  0  0  0  0
  -16.4237   20.4779  -31.8948 N   0  0  0  0  0  0  0  0  0  0  0  0
  -15.5037   21.3590  -31.2110 C   0  0  0  0  0  0  0  0  0  0  0  0
  -17.7463   20.7002  -31.8901 C   0  0  0  0  0  0  0  0  0  0  0  0
  -18.1817   21.7040  -31.2675 O   0  0  0  0  0  0  0  0  0  0  0  0
  -18.6292   19.8482  -32.5538 C   0  0  0  0  0  0  0  0  0  0  0  0
  -20.0042   20.1813  -32.4847 N   0  0  0  0  0  0  0  0  0  0  0  0
  -21.0068   19.1919  -32.8059 C   0  0  0  0  0  0  0  0  0  0  0  0
  -20.8334   18.3397  -33.8745 C   0  0  0  0  0  0  0  0  0  0  0  0
  -21.7778   17.4030  -34.2365 C   0  0  0  0  0  0  0  0  0  0  0  0
  -22.9661   17.2894  -33.5114 C   0  0  0  0  0  0  0  0  0  0  0  0
  -23.9890   16.3276  -33.8947 C   0  0  0  0  0  0  0  0  0  0  0  0
  -24.6815   16.6181  -34.9412 O   0  0  0  0  0  0  0  0  0  0  0  0
  -24.2989   15.1261  -33.2457 N   0  0  0  0  0  0  0  0  0  0  0  0
  -25.5136   14.3723  -33.5896 C   0  0  0  0  0  0  0  0  0  0  0  0
  -25.0373   12.9803  -33.9912 C   0  0  0  0  0  0  0  0  0  0  0  0
  -24.4024   12.4245  -32.8780 O   0  0  0  0  0  0  0  0  0  0  0  0
  -23.2265   13.0903  -32.5688 C   0  0  0  0  0  0  0  0  0  0  0  0
  -23.4667   14.5383  -32.2134 C   0  0  0  0  0  0  0  0  0  0  0  0
  -23.1278   18.1430  -32.4470 C   0  0  0  0  0  0  0  0  0  0  0  0
  -22.1658   19.0966  -32.0791 C   0  0  0  0  0  0  0  0  0  0  0  0
  -18.0916   18.8101  -33.1856 N   0  0  0  0  0  0  0  0  0  0  0  0
  1  2  1  0
  2  3  2  0
  3  4  1  0
  4  5  1  0
  5  6  2  0
  5  7  1  0
  7  8  2  0
  8  9  1  0
  9 10  2  0
 10 11  1  0
 11 12  1  0
 11 13  1  0
 11 14  1  0
 10 15  1  0
 15 16  2  0
  3 17  1  0
 17 18  2  0
 18 19  1  0
 19 20  2  0
 20 21  1  0
 21 22  2  0
 22 23  1  0
 23 24  1  0
 23 25  1  0
 25 26  2  0
 25 27  1  0
 27 28  1  0
 28 29  1  0
 29 30  2  0
 30 31  1  0
 31 32  2  0
 32 33  1  0
 33 34  2  0
 33 35  1  0
 35 36  1  0
 36 37  1  0
 37 38  1  0
 38 39  1  0
 39 40  1  0
 32 41  1  0
 41 42  2  0
 27 43  2  0
 20  2  1  0
 43 21  1  0
 16  7  1  0
 42 29  1  0
 40 35  1  0
M  END
$$$$
