
     RDKit          3D

 15 14  0  0  0  0  0  0  0  0999 V2000
  -18.4465   38.9438  -23.5958 Cl  0  0  0  0  0  0  0  0  0  0  0  0
  -20.7041   36.5477  -26.1095 N   0  0  0  0  0  0  0  0  0  0  0  0
  -19.8665   37.5466  -26.7724 C   0  0  0  0  0  0  0  0  0  0  0  0
  -20.0290   38.8810  -26.1362 C   0  0  0  0  0  0  0  0  0  0  0  0
  -20.4697   39.9159  -26.8444 C   0  0  0  0  0  0  0  0  0  0  0  0
  -20.6302   41.1379  -26.3067 F   0  0  0  0  0  0  0  0  0  0  0  0
  -19.7122   39.1181  -24.7014 C   0  0  0  0  0  0  0  0  0  0  0  0
  -18.2649   38.8020  -24.4636 C   0  0  0  0  0  0  0  0  0  0  0  0
  -17.8891   39.0210  -23.0431 C   0  0  0  0  0  0  0  0  0  0  0  0
  -17.4205   40.2367  -22.5836 C   0  0  0  0  0  0  0  0  0  0  0  0
  -17.0677   40.4597  -21.2748 C   0  0  0  0  0  0  0  0  0  0  0  0
  -17.1727   39.4495  -20.3511 C   0  0  0  0  0  0  0  0  0  0  0  0
  -16.8388   39.6117  -19.0443 F   0  0  0  0  0  0  0  0  0  0  0  0
  -17.6358   38.2281  -20.7773 C   0  0  0  0  0  0  0  0  0  0  0  0
  -17.9878   38.0127  -22.0936 C   0  0  0  0  0  0  0  0  0  0  0  0
  2  3  1  0
  3  4  1  0
  4  5  2  0
  5  6  1  0
  4  7  1  0
  7  8  1  0
  8  9  1  0
  9 10  2  0
 10 11  1  0
 11 12  2  0
 12 13  1  0
 12 14  1  0
 14 15  2  0
 15  9  1  0
M  END
$$$$
