
     RDKit          3D

 30 32  0  0  0  0  0  0  0  0999 V2000
  -11.4169   41.3332  -20.3553 C   0  0  0  0  0  0  0  0  0  0  0  0
  -12.8983   41.4727  -20.0984 C   0  0  0  0  0  0  0  0  0  0  0  0
  -13.2648   42.9342  -19.9130 C   0  0  0  0  0  0  0  0  0  0  0  0
  -14.6656   43.1231  -20.4227 C   0  0  0  0  0  0  0  0  0  0  0  0
  -15.4797   41.8796  -20.3099 C   0  0  0  0  0  0  0  0  0  0  0  0
  -16.8776   42.0683  -20.8023 C   0  0  0  0  0  0  0  0  0  0  0  0
  -17.7128   40.8082  -20.6798 C   0  0  0  0  0  0  0  0  0  0  0  0
  -19.1063   41.1488  -21.1718 C   0  0  0  0  0  0  0  0  0  0  0  0
  -19.3810   40.5671  -22.4968 C   0  0  0  0  0  0  0  0  0  0  0  0
  -19.3914   41.3414  -23.5124 O   0  0  0  0  0  0  0  0  0  0  0  0
  -19.6407   39.2108  -22.7615 N   0  0  0  0  0  0  0  0  0  0  0  0
  -19.8284   38.6494  -24.0976 C   0  0  2  0  0  0  0  0  0  0  0  0
  -20.8951   39.3456  -24.8684 C   0  0  0  0  0  0  0  0  0  0  0  0
  -20.2621   40.2531  -25.8052 N   0  0  0  0  0  0  0  0  0  0  0  0
  -20.3419   41.6385  -25.3954 C   0  0  0  0  0  0  0  0  0  0  0  0
  -19.6835   42.3234  -26.6000 C   0  0  0  0  0  0  0  0  0  0  0  0
  -20.3427   41.5348  -27.7360 C   0  0  0  0  0  0  0  0  0  0  0  0
  -20.9112   40.2761  -27.0944 C   0  0  0  0  0  0  0  0  0  0  0  0
  -19.9907   37.1489  -24.0344 C   0  0  2  0  0  0  0  0  0  0  0  0
  -21.1702   36.8710  -23.3535 O   0  0  0  0  0  0  0  0  0  0  0  0
  -18.8910   36.4317  -23.3919 C   0  0  0  0  0  0  0  0  0  0  0  0
  -17.9223   35.8398  -24.1654 C   0  0  0  0  0  0  0  0  0  0  0  0
  -16.8939   35.1618  -23.4998 C   0  0  0  0  0  0  0  0  0  0  0  0
  -16.8479   35.0869  -22.1247 C   0  0  0  0  0  0  0  0  0  0  0  0
  -17.8395   35.6932  -21.3407 C   0  0  0  0  0  0  0  0  0  0  0  0
  -18.8330   36.3491  -22.0171 C   0  0  0  0  0  0  0  0  0  0  0  0
  -17.7361   35.5821  -19.9627 O   0  0  0  0  0  0  0  0  0  0  0  0
  -16.7976   34.8243  -19.2659 C   0  0  0  0  0  0  0  0  0  0  0  0
  -15.8358   34.0553  -20.1199 C   0  0  0  0  0  0  0  0  0  0  0  0
  -15.8300   34.4162  -21.4708 O   0  0  0  0  0  0  0  0  0  0  0  0
  1  2  1  0
  2  3  1  0
  3  4  1  0
  4  5  1  0
  5  6  1  0
  6  7  1  0
  7  8  1  0
  8  9  1  0
  9 10  2  0
  9 11  1  0
 11 12  1  0
 12 13  1  1
 13 14  1  0
 14 15  1  0
 15 16  1  0
 16 17  1  0
 17 18  1  0
 12 19  1  0
 19 20  1  1
 19 21  1  0
 21 22  2  0
 22 23  1  0
 23 24  2  0
 24 25  1  0
 25 26  2  0
 25 27  1  0
 27 28  1  0
 28 29  1  0
 29 30  1  0
 18 14  1  0
 26 21  1  0
 30 24  1  0
M  END
$$$$
