
     RDKit          3D

 28 29  0  0  0  0  0  0  0  0999 V2000
  -17.8352   42.6172  -22.2072 Cl  0  0  0  0  0  0  0  0  0  0  0  0
  -17.8342   42.6140  -22.2066 Cl  0  0  0  0  0  0  0  0  0  0  0  0
  -18.8210   35.6293  -22.7864 N   0  0  0  0  0  0  0  0  0  0  0  0
  -18.5916   36.7367  -22.5170 C   0  0  0  0  0  0  0  0  0  0  0  0
  -18.2988   38.1220  -22.2050 C   0  0  0  0  0  0  0  0  0  0  0  0
  -17.8523   38.9799  -23.1877 C   0  0  0  0  0  0  0  0  0  0  0  0
  -17.5767   40.3023  -22.8721 C   0  0  0  0  0  0  0  0  0  0  0  0
  -17.7257   40.8161  -21.6141 C   0  0  0  0  0  0  0  0  0  0  0  0
  -17.4777   42.0971  -21.2240 O   0  0  0  0  0  0  0  0  0  0  0  0
  -17.0243   43.1677  -21.9898 C   0  0  2  0  0  0  0  0  0  0  0  0
  -15.7076   43.6466  -21.4944 C   0  0  0  0  0  0  0  0  0  0  0  0
  -14.5593   42.9621  -21.1116 C   0  0  0  0  0  0  0  0  0  0  0  0
  -13.4607   43.6665  -20.6879 C   0  0  0  0  0  0  0  0  0  0  0  0
  -13.4797   45.0292  -20.6373 C   0  0  0  0  0  0  0  0  0  0  0  0
  -14.6109   45.7279  -21.0133 C   0  0  0  0  0  0  0  0  0  0  0  0
  -15.7385   45.0158  -21.4477 C   0  0  0  0  0  0  0  0  0  0  0  0
  -17.0454   45.5643  -21.8897 C   0  0  0  0  0  0  0  0  0  0  0  0
  -17.9205   44.3298  -21.7971 C   0  0  1  0  0  0  0  0  0  0  0  0
  -19.0687   44.3778  -22.6423 N   0  0  0  0  0  0  0  0  0  0  0  0
  -18.8143   44.4216  -24.0319 C   0  0  0  0  0  0  0  0  0  0  0  0
  -20.1693   44.3849  -24.7518 C   0  0  0  0  0  0  0  0  0  0  0  0
  -20.7911   45.7365  -24.4697 C   0  0  0  0  0  0  0  0  0  0  0  0
  -21.0643   45.7920  -23.0070 C   0  0  1  0  0  0  0  0  0  0  0  0
  -22.3372   45.0924  -22.7725 N   0  0  0  0  0  0  0  0  0  0  0  0
  -19.9973   45.3056  -22.1248 C   0  0  0  0  0  0  0  0  0  0  0  0
  -18.1789   39.9295  -20.6347 C   0  0  0  0  0  0  0  0  0  0  0  0
  -18.4008   40.4922  -18.9961 Cl  0  0  0  0  0  0  0  0  0  0  0  0
  -18.4537   38.6204  -20.9381 C   0  0  0  0  0  0  0  0  0  0  0  0
  3  4  3  0
  4  5  1  0
  5  6  2  0
  6  7  1  0
  7  8  2  0
  8  9  1  0
 10  9  1  1
 10 11  1  0
 11 12  2  0
 12 13  1  0
 13 14  2  0
 14 15  1  0
 15 16  2  0
 16 17  1  0
 17 18  1  0
 18 19  1  6
 19 20  1  0
 20 21  1  0
 21 22  1  0
 22 23  1  0
 23 24  1  6
 23 25  1  0
  8 26  1  0
 26 27  1  0
 26 28  2  0
 28  5  1  0
 18 10  1  0
 25 19  1  0
 16 11  1  0
M  END
$$$$
