
     RDKit          3D

 38 42  0  0  0  0  0  0  0  0999 V2000
  -24.6170   13.8606  -35.7154 C   0  0  0  0  0  0  0  0  0  0  0  0
  -24.1857   15.0953  -35.1771 O   0  0  0  0  0  0  0  0  0  0  0  0
  -22.9682   15.1295  -34.5186 C   0  0  0  0  0  0  0  0  0  0  0  0
  -22.8144   14.5478  -33.2806 C   0  0  0  0  0  0  0  0  0  0  0  0
  -21.5868   14.6026  -32.6568 C   0  0  0  0  0  0  0  0  0  0  0  0
  -20.4798   15.2344  -33.2428 C   0  0  0  0  0  0  0  0  0  0  0  0
  -20.6266   15.8135  -34.4725 C   0  0  0  0  0  0  0  0  0  0  0  0
  -21.8633   15.7623  -35.1072 C   0  0  0  0  0  0  0  0  0  0  0  0
  -22.0143   16.3402  -36.3360 O   0  0  0  0  0  0  0  0  0  0  0  0
  -21.5582   15.8725  -37.5663 C   0  0  0  0  0  0  0  0  0  0  0  0
  -21.8980   16.9290  -38.5859 C   0  0  0  0  0  0  0  0  0  0  0  0
  -21.3434   18.1956  -38.5122 C   0  0  0  0  0  0  0  0  0  0  0  0
  -21.6325   19.1833  -39.4269 C   0  0  0  0  0  0  0  0  0  0  0  0
  -22.4933   18.9191  -40.4461 C   0  0  0  0  0  0  0  0  0  0  0  0
  -23.0645   17.6677  -40.5502 C   0  0  0  0  0  0  0  0  0  0  0  0
  -22.7613   16.6836  -39.6185 C   0  0  0  0  0  0  0  0  0  0  0  0
  -19.4752   16.4766  -35.1276 C   0  0  0  0  0  0  0  0  0  0  0  0
  -18.5913   17.1618  -34.1010 C   0  0  1  0  0  0  0  0  0  0  0  0
  -19.3687   18.3287  -33.6342 C   0  0  0  0  0  0  0  0  0  0  0  0
  -19.7779   18.3714  -32.4501 O   0  0  0  0  0  0  0  0  0  0  0  0
  -19.6632   19.3895  -34.4694 O   0  0  0  0  0  0  0  0  0  0  0  0
  -18.2589   16.2278  -33.0392 N   0  0  0  0  0  0  0  0  0  0  0  0
  -16.9532   16.2533  -32.4876 C   0  0  0  0  0  0  0  0  0  0  0  0
  -16.1333   17.0877  -32.9556 O   0  0  0  0  0  0  0  0  0  0  0  0
  -16.4966   15.3676  -31.4012 C   0  0  0  0  0  0  0  0  0  0  0  0
  -15.3541   14.5143  -31.7268 C   0  0  0  0  0  0  0  0  0  0  0  0
  -14.4900   14.9165  -32.7416 C   0  0  0  0  0  0  0  0  0  0  0  0
  -13.4276   14.0710  -33.0207 C   0  0  0  0  0  0  0  0  0  0  0  0
  -13.2338   12.8987  -32.3358 C   0  0  0  0  0  0  0  0  0  0  0  0
  -14.1155   12.5381  -31.3363 C   0  0  0  0  0  0  0  0  0  0  0  0
  -15.1728   13.3465  -31.0346 C   0  0  0  0  0  0  0  0  0  0  0  0
  -16.1500   16.1915  -30.2170 C   0  0  0  0  0  0  0  0  0  0  0  0
  -16.5852   15.8376  -28.9367 C   0  0  0  0  0  0  0  0  0  0  0  0
  -16.2809   16.5844  -27.8212 C   0  0  0  0  0  0  0  0  0  0  0  0
  -15.5094   17.7339  -27.9884 C   0  0  0  0  0  0  0  0  0  0  0  0
  -15.0872   18.0708  -29.2570 C   0  0  0  0  0  0  0  0  0  0  0  0
  -15.3876   17.3303  -30.3708 C   0  0  0  0  0  0  0  0  0  0  0  0
  -19.1873   15.2669  -32.5361 C   0  0  0  0  0  0  0  0  0  0  0  0
  1  2  1  0
  2  3  1  0
  3  4  2  0
  4  5  1  0
  5  6  2  0
  6  7  1  0
  7  8  2  0
  8  9  1  0
  9 10  1  0
 10 11  1  0
 11 12  2  0
 12 13  1  0
 13 14  2  0
 14 15  1  0
 15 16  2  0
  7 17  1  0
 17 18  1  0
 18 19  1  1
 19 20  2  0
 19 21  1  0
 18 22  1  0
 22 23  1  0
 23 24  2  0
 23 25  1  0
 25 26  1  0
 26 27  2  0
 27 28  1  0
 28 29  2  0
 29 30  1  0
 30 31  2  0
 25 32  1  0
 32 33  2  0
 33 34  1  0
 34 35  2  0
 35 36  1  0
 36 37  2  0
 22 38  1  0
  8  3  1  0
 16 11  1  0
 31 26  1  0
 37 32  1  0
 38  6  1  0
M  END
$$$$
