
     RDKit          3D

 30 33  0  0  0  0  0  0  0  0999 V2000
  -17.9658   40.6126  -25.6316 C   0  0  0  0  0  0  0  0  0  0  0  0
  -18.3459   40.3622  -24.2319 C   0  0  0  0  0  0  0  0  0  0  0  0
  -18.8996   39.2637  -23.6977 N   0  0  0  0  0  0  0  0  0  0  0  0
  -19.0965   39.4254  -22.3761 C   0  0  0  0  0  0  0  0  0  0  0  0
  -19.6410   38.5560  -21.4336 C   0  0  0  0  0  0  0  0  0  0  0  0
  -20.0778   37.2884  -21.8524 N   0  0  0  0  0  0  0  0  0  0  0  0
  -19.5060   36.5317  -22.9439 C   0  0  0  0  0  0  0  0  0  0  0  0
  -18.9489   35.2654  -22.4153 C   0  0  0  0  0  0  0  0  0  0  0  0
  -19.7089   34.3748  -21.6956 C   0  0  0  0  0  0  0  0  0  0  0  0
  -19.1605   33.1980  -21.1888 C   0  0  0  0  0  0  0  0  0  0  0  0
  -17.8287   32.9438  -21.4272 C   0  0  0  0  0  0  0  0  0  0  0  0
  -17.0203   33.7976  -22.1409 C   0  0  0  0  0  0  0  0  0  0  0  0
  -15.3275   33.4915  -22.4541 S   0  0  0  0  0  6  0  0  0  0  0  0
  -15.1014   32.5848  -23.9649 C   0  0  0  0  0  0  0  0  0  0  0  0
  -14.5841   34.8035  -22.5356 O   0  0  0  0  0  0  0  0  0  0  0  0
  -14.7822   32.7206  -21.2821 O   0  0  0  0  0  0  0  0  0  0  0  0
  -17.5992   34.9483  -22.6238 C   0  0  0  0  0  0  0  0  0  0  0  0
  -19.7188   38.9916  -20.1673 N   0  0  0  0  0  0  0  0  0  0  0  0
  -19.2889   40.2128  -19.8309 C   0  0  0  0  0  0  0  0  0  0  0  0
  -18.7498   41.0868  -20.7365 C   0  0  0  0  0  0  0  0  0  0  0  0
  -18.6687   40.6502  -22.0185 N   0  0  0  0  0  0  0  0  0  0  0  0
  -18.2052   41.2365  -23.1464 C   0  0  0  0  0  0  0  0  0  0  0  0
  -17.6501   42.5720  -23.2386 C   0  0  0  0  0  0  0  0  0  0  0  0
  -18.1674   43.5046  -24.1118 C   0  0  0  0  0  0  0  0  0  0  0  0
  -17.6328   44.7923  -24.2136 C   0  0  0  0  0  0  0  0  0  0  0  0
  -16.5643   45.1574  -23.4315 C   0  0  0  0  0  0  0  0  0  0  0  0
  -16.0248   46.4463  -23.5294 O   0  0  0  0  0  0  0  0  0  0  0  0
  -16.0645   44.2102  -22.5668 C   0  0  0  0  0  0  0  0  0  0  0  0
  -15.0010   44.5960  -21.7981 F   0  0  0  0  0  0  0  0  0  0  0  0
  -16.5771   42.9345  -22.4511 C   0  0  0  0  0  0  0  0  0  0  0  0
  1  2  1  0
  2  3  1  0
  3  4  2  0
  4  5  1  0
  5  6  1  0
  6  7  1  0
  7  8  1  0
  8  9  2  0
  9 10  1  0
 10 11  2  0
 11 12  1  0
 12 13  1  0
 13 14  1  0
 13 15  2  0
 13 16  2  0
 12 17  2  0
  5 18  2  0
 18 19  1  0
 19 20  2  0
 20 21  1  0
 21 22  1  0
 22 23  1  0
 23 24  2  0
 24 25  1  0
 25 26  2  0
 26 27  1  0
 26 28  1  0
 28 29  1  0
 28 30  2  0
 22  2  2  0
 30 23  1  0
 21  4  1  0
 17  8  1  0
M  END
$$$$
