
     RDKit          3D

 18 19  0  0  0  0  0  0  0  0999 V2000
  -16.7709   41.0922  -21.6093 N   0  0  0  0  0  0  0  0  0  0  0  0
  -17.6922   40.0650  -20.6071 S   0  0  0  0  0  6  0  0  0  0  0  0
  -16.8821   39.6545  -19.4339 O   0  0  0  0  0  0  0  0  0  0  0  0
  -18.9458   40.7803  -20.1311 O   0  0  0  0  0  0  0  0  0  0  0  0
  -18.1254   38.6299  -21.5304 C   0  0  0  0  0  0  0  0  0  0  0  0
  -17.3295   37.5027  -21.5274 C   0  0  0  0  0  0  0  0  0  0  0  0
  -17.6792   36.3808  -22.2563 C   0  0  0  0  0  0  0  0  0  0  0  0
  -18.8284   36.3251  -23.0180 C   0  0  0  0  0  0  0  0  0  0  0  0
  -19.1795   35.1683  -23.7635 N   0  0  0  0  0  0  0  0  0  0  0  0
  -18.3189   34.0051  -23.7617 C   0  0  0  0  0  0  0  0  0  0  0  0
  -18.7108   33.0468  -22.7179 C   0  0  0  0  0  0  0  0  0  0  0  0
  -20.0448   32.8597  -22.4051 C   0  0  0  0  0  0  0  0  0  0  0  0
  -20.4542   31.9714  -21.4334 C   0  0  0  0  0  0  0  0  0  0  0  0
  -19.5284   31.2283  -20.7305 C   0  0  0  0  0  0  0  0  0  0  0  0
  -18.1998   31.4211  -21.0489 C   0  0  0  0  0  0  0  0  0  0  0  0
  -17.7721   32.3028  -22.0152 C   0  0  0  0  0  0  0  0  0  0  0  0
  -19.6208   37.4571  -23.0165 C   0  0  0  0  0  0  0  0  0  0  0  0
  -19.2751   38.5793  -22.2901 C   0  0  0  0  0  0  0  0  0  0  0  0
  1  2  1  0
  2  3  2  0
  2  4  2  0
  2  5  1  0
  5  6  2  0
  6  7  1  0
  7  8  2  0
  8  9  1  0
  9 10  1  0
 10 11  1  0
 11 12  2  0
 12 13  1  0
 13 14  2  0
 14 15  1  0
 15 16  2  0
  8 17  1  0
 17 18  2  0
 18  5  1  0
 16 11  1  0
M  END
$$$$
