
     RDKit          3D

 18 19  0  0  0  0  0  0  0  0999 V2000
  -16.2272   15.6192  -32.6398 O   0  0  0  0  0  0  0  0  0  0  0  0
  -17.0940   15.4554  -31.7484 C   0  0  0  0  0  0  0  0  0  0  0  0
  -16.7881   15.9096  -30.4471 N   0  0  0  0  0  0  0  0  0  0  0  0
  -15.6154   16.5943  -30.2280 N   0  0  0  0  0  0  0  0  0  0  0  0
  -15.4962   17.7441  -29.7024 C   0  0  0  0  0  0  0  0  0  0  0  0
  -16.1866   18.8899  -30.2667 C   0  0  0  0  0  0  0  0  0  0  0  0
  -15.5634   20.1141  -30.2482 C   0  0  0  0  0  0  0  0  0  0  0  0
  -16.1685   21.2557  -30.7727 C   0  0  0  0  0  0  0  0  0  0  0  0
  -17.4270   21.1524  -31.3250 C   0  0  0  0  0  0  0  0  0  0  0  0
  -18.1488   22.6115  -31.9718 Cl  0  0  0  0  0  0  0  0  0  0  0  0
  -18.0778   19.9364  -31.3579 C   0  0  0  0  0  0  0  0  0  0  0  0
  -17.4453   18.8083  -30.8238 C   0  0  0  0  0  0  0  0  0  0  0  0
  -18.3587   14.8128  -32.0935 C   0  0  0  0  0  0  0  0  0  0  0  0
  -18.6235   14.3980  -33.3815 C   0  0  0  0  0  0  0  0  0  0  0  0
  -19.8061   13.7911  -33.7302 C   0  0  0  0  0  0  0  0  0  0  0  0
  -20.7900   13.5725  -32.7784 C   0  0  0  0  0  0  0  0  0  0  0  0
  -20.5416   13.9802  -31.4897 C   0  0  0  0  0  0  0  0  0  0  0  0
  -19.3412   14.5925  -31.1518 C   0  0  0  0  0  0  0  0  0  0  0  0
  1  2  2  0
  2  3  1  0
  3  4  1  0
  4  5  2  0
  5  6  1  0
  6  7  2  0
  7  8  1  0
  8  9  2  0
  9 10  1  0
  9 11  1  0
 11 12  2  0
  2 13  1  0
 13 14  2  0
 14 15  1  0
 15 16  2  0
 16 17  1  0
 17 18  2  0
 12  6  1  0
 18 13  1  0
M  END
$$$$
