
     RDKit          3D

 42 46  0  0  0  0  0  0  0  0999 V2000
  -24.2368   15.1828  -22.0929 O   0  0  0  0  0  0  0  0  0  0  0  0
  -24.4198   14.6147  -23.2433 C   0  0  0  0  0  0  0  0  0  0  0  0
  -23.7896   13.4029  -23.3150 O   0  0  0  0  0  0  0  0  0  0  0  0
  -25.2210   15.3044  -24.2353 C   0  0  0  0  0  0  0  0  0  0  0  0
  -25.7678   14.5142  -25.2493 C   0  0  0  0  0  0  0  0  0  0  0  0
  -26.5389   15.0545  -26.2342 C   0  0  0  0  0  0  0  0  0  0  0  0
  -27.0938   14.1813  -27.2557 C   0  0  0  0  0  0  0  0  0  0  0  0
  -27.3488   12.9666  -27.0509 O   0  0  0  0  0  0  0  0  0  0  0  0
  -27.3539   14.7060  -28.5106 O   0  0  0  0  0  0  0  0  0  0  0  0
  -26.8264   16.3969  -26.2951 C   0  0  0  0  0  0  0  0  0  0  0  0
  -27.6619   16.8828  -27.3729 C   0  0  0  0  0  0  0  0  0  0  0  0
  -27.1219   17.1255  -28.4828 O   0  0  0  0  0  0  0  0  0  0  0  0
  -29.0776   17.1122  -27.2575 N   0  0  0  0  0  0  0  0  0  0  0  0
  -29.7576   16.6386  -26.1055 C   0  0  0  0  0  0  0  0  0  0  0  0
  -31.1103   16.1010  -26.2648 C   0  0  0  0  0  0  0  0  0  0  0  0
  -31.6614   15.9734  -27.5132 C   0  0  0  0  0  0  0  0  0  0  0  0
  -32.9364   15.4821  -27.6537 C   0  0  0  0  0  0  0  0  0  0  0  0
  -33.6975   15.1058  -26.5737 C   0  0  0  0  0  0  0  0  0  0  0  0
  -33.1652   15.2253  -25.3144 C   0  0  0  0  0  0  0  0  0  0  0  0
  -33.9059   14.8523  -24.1778 O   0  0  0  0  0  0  0  0  0  0  0  0
  -35.2063   14.3992  -24.2515 C   0  0  0  0  0  0  0  0  0  0  0  0
  -35.6839   13.4502  -23.3604 C   0  0  0  0  0  0  0  0  0  0  0  0
  -36.9965   13.0559  -23.5081 C   0  0  0  0  0  0  0  0  0  0  0  0
  -37.7911   13.5947  -24.5093 C   0  0  0  0  0  0  0  0  0  0  0  0
  -37.3159   14.5375  -25.3946 C   0  0  0  0  0  0  0  0  0  0  0  0
  -36.0017   14.9322  -25.2469 C   0  0  0  0  0  0  0  0  0  0  0  0
  -31.8846   15.7202  -25.1886 C   0  0  0  0  0  0  0  0  0  0  0  0
  -29.6783   17.8710  -28.3429 C   0  0  1  0  0  0  0  0  0  0  0  0
  -31.1266   17.6912  -28.5351 C   0  0  0  0  0  0  0  0  0  0  0  0
  -32.0418   18.8322  -28.3217 C   0  0  0  0  0  0  0  0  0  0  0  0
  -31.5497   19.9821  -27.5287 C   0  0  0  0  0  0  0  0  0  0  0  0
  -30.1717   20.2889  -27.9597 C   0  0  0  0  0  0  0  0  0  0  0  0
  -29.8128   21.6371  -27.9557 C   0  0  0  0  0  0  0  0  0  0  0  0
  -28.5501   22.0235  -28.3404 C   0  0  0  0  0  0  0  0  0  0  0  0
  -27.6550   21.0534  -28.7273 C   0  0  0  0  0  0  0  0  0  0  0  0
  -28.0417   19.7475  -28.7183 C   0  0  0  0  0  0  0  0  0  0  0  0
  -29.3146   19.3031  -28.3353 C   0  0  0  0  0  0  0  0  0  0  0  0
  -26.2957   17.1697  -25.3079 C   0  0  0  0  0  0  0  0  0  0  0  0
  -25.4851   16.6458  -24.2609 C   0  0  0  0  0  0  0  0  0  0  0  0
  -24.9766   17.5571  -23.2753 C   0  0  0  0  0  0  0  0  0  0  0  0
  -23.9756   17.1618  -22.5800 O   0  0  0  0  0  0  0  0  0  0  0  0
  -25.4273   18.7877  -22.9890 O   0  0  0  0  0  0  0  0  0  0  0  0
  1  2  2  0
  2  3  1  0
  2  4  1  0
  4  5  2  0
  5  6  1  0
  6  7  1  0
  7  8  2  0
  7  9  1  0
  6 10  2  0
 10 11  1  0
 11 12  2  0
 11 13  1  0
 13 14  1  0
 14 15  1  0
 15 16  2  0
 16 17  1  0
 17 18  2  0
 18 19  1  0
 19 20  1  0
 20 21  1  0
 21 22  2  0
 22 23  1  0
 23 24  2  0
 24 25  1  0
 25 26  2  0
 19 27  2  0
 28 13  1  1
 28 29  1  0
 29 30  1  0
 30 31  1  0
 31 32  1  0
 32 33  2  0
 33 34  1  0
 34 35  2  0
 35 36  1  0
 36 37  2  0
 10 38  1  0
 38 39  2  0
 39 40  1  0
 40 41  2  0
 40 42  1  0
 39  4  1  0
 27 15  1  0
 37 28  1  0
 26 21  1  0
 37 32  1  0
M  END
$$$$
