
     RDKit          3D

 24 26  0  0  0  0  0  0  0  0999 V2000
  -26.3307   16.2458  -29.2394 O   0  0  0  0  0  0  0  0  0  0  0  0
  -26.5367   15.6951  -28.1160 C   0  0  0  0  0  0  0  0  0  0  0  0
  -27.4000   14.5252  -28.0734 C   0  0  0  0  0  0  0  0  0  0  0  0
  -27.2246   13.5072  -27.1504 C   0  0  0  0  0  0  0  0  0  0  0  0
  -28.0766   12.4125  -27.1266 C   0  0  0  0  0  0  0  0  0  0  0  0
  -29.1306   12.2807  -28.0117 C   0  0  0  0  0  0  0  0  0  0  0  0
  -30.1632   10.8717  -27.9288 Cl  0  0  0  0  0  0  0  0  0  0  0  0
  -29.3076   13.2923  -28.9335 C   0  0  0  0  0  0  0  0  0  0  0  0
  -28.4646   14.3857  -28.9635 C   0  0  0  0  0  0  0  0  0  0  0  0
  -25.9183   16.2361  -26.9223 C   0  0  0  0  0  0  0  0  0  0  0  0
  -24.8492   15.4821  -26.4153 C   0  0  0  0  0  0  0  0  0  0  0  0
  -24.1479   15.8867  -25.3179 C   0  0  0  0  0  0  0  0  0  0  0  0
  -23.0492   15.1379  -24.7963 N   0  0  0  0  0  4  0  0  0  0  0  0
  -22.3745   15.5258  -23.8364 O   0  0  0  0  0  0  0  0  0  0  0  0
  -22.7331   13.9471  -25.3791 O   0  0  0  0  0  1  0  0  0  0  0  0
  -24.5311   17.0756  -24.7195 C   0  0  0  0  0  0  0  0  0  0  0  0
  -25.5762   17.8159  -25.2115 C   0  0  0  0  0  0  0  0  0  0  0  0
  -26.2964   17.4159  -26.3253 C   0  0  0  0  0  0  0  0  0  0  0  0
  -27.3607   18.1651  -26.8482 N   0  0  0  0  0  0  0  0  0  0  0  0
  -27.2927   19.2405  -27.7968 C   0  0  0  0  0  0  0  0  0  0  0  0
  -28.6014   20.0201  -27.6356 C   0  0  0  0  0  0  0  0  0  0  0  0
  -28.9460   20.2049  -26.2979 O   0  0  0  0  0  0  0  0  0  0  0  0
  -29.2100   19.0215  -25.6275 C   0  0  0  0  0  0  0  0  0  0  0  0
  -28.7255   17.8200  -26.4046 C   0  0  0  0  0  0  0  0  0  0  0  0
  1  2  2  0
  2  3  1  0
  3  4  2  0
  4  5  1  0
  5  6  2  0
  6  7  1  0
  6  8  1  0
  8  9  2  0
  2 10  1  0
 10 11  2  0
 11 12  1  0
 12 13  1  0
 13 14  2  0
 13 15  1  0
 12 16  2  0
 16 17  1  0
 17 18  2  0
 18 19  1  0
 19 20  1  0
 20 21  1  0
 21 22  1  0
 22 23  1  0
 23 24  1  0
  9  3  1  0
 18 10  1  0
 24 19  1  0
M  CHG  2  13   1  15  -1
M  END
$$$$
