
     RDKit          3D

 24 26  0  0  0  0  0  0  0  0999 V2000
  -16.9494   34.6929  -21.5919 C   0  0  0  0  0  0  0  0  0  0  0  0
  -17.6296   36.0094  -21.6872 C   0  0  0  0  0  0  0  0  0  0  0  0
  -17.2213   37.1389  -21.0148 C   0  0  0  0  0  0  0  0  0  0  0  0
  -18.1210   38.1296  -21.3814 C   0  0  0  0  0  0  0  0  0  0  0  0
  -19.0228   37.5430  -22.2550 C   0  0  0  0  0  0  0  0  0  0  0  0
  -20.1244   38.2832  -22.8554 C   0  0  0  0  0  0  0  0  0  0  0  0
  -19.9974   39.4602  -23.3518 N   0  0  0  0  0  0  0  0  0  0  0  0
  -18.7107   40.0168  -23.6120 N   0  0  0  0  0  0  0  0  0  0  0  0
  -18.6249   41.2724  -24.2155 C   0  0  0  0  0  0  0  0  0  0  0  0
  -18.3470   41.2656  -25.4849 O   0  0  0  0  0  0  0  0  0  0  0  0
  -18.8025   42.5759  -23.6227 C   0  0  0  0  0  0  0  0  0  0  0  0
  -20.0876   43.1587  -23.6154 C   0  0  0  0  0  0  0  0  0  0  0  0
  -20.2915   44.4005  -23.0582 C   0  0  0  0  0  0  0  0  0  0  0  0
  -19.2551   45.1057  -22.4953 C   0  0  0  0  0  0  0  0  0  0  0  0
  -18.0024   44.5460  -22.4983 C   0  0  0  0  0  0  0  0  0  0  0  0
  -17.7710   43.2699  -23.0663 C   0  0  0  0  0  0  0  0  0  0  0  0
  -16.4975   42.7533  -23.0440 O   0  0  0  0  0  0  0  0  0  0  0  0
  -15.6808   43.0131  -21.9506 C   0  0  0  0  0  0  0  0  0  0  0  0
  -15.9445   42.4762  -20.6996 C   0  0  0  0  0  0  0  0  0  0  0  0
  -15.1286   42.7399  -19.6224 C   0  0  0  0  0  0  0  0  0  0  0  0
  -14.0222   43.5496  -19.7618 C   0  0  0  0  0  0  0  0  0  0  0  0
  -13.7252   44.1029  -20.9890 C   0  0  0  0  0  0  0  0  0  0  0  0
  -14.5587   43.8222  -22.0497 C   0  0  0  0  0  0  0  0  0  0  0  0
  -18.6806   36.2824  -22.3988 O   0  0  0  0  0  0  0  0  0  0  0  0
  1  2  1  0
  2  3  2  0
  3  4  1  0
  4  5  2  0
  5  6  1  0
  6  7  2  0
  7  8  1  0
  8  9  1  0
  9 10  2  0
  9 11  1  0
 11 12  2  0
 12 13  1  0
 13 14  2  0
 14 15  1  0
 15 16  2  0
 16 17  1  0
 17 18  1  0
 18 19  2  0
 19 20  1  0
 20 21  2  0
 21 22  1  0
 22 23  2  0
  5 24  1  0
 24  2  1  0
 16 11  1  0
 23 18  1  0
M  END
$$$$
