
     RDKit          3D

 32 35  0  0  0  0  0  0  0  0999 V2000
  -21.7490   18.0740  -37.3393 C   0  0  0  0  0  0  0  0  0  0  0  0
  -21.6659   19.1215  -38.4520 C   0  0  0  0  0  0  0  0  0  0  0  0
  -22.5162   20.2997  -38.0979 C   0  0  0  0  0  0  0  0  0  0  0  0
  -23.1800   20.3663  -37.0573 O   0  0  0  0  0  0  0  0  0  0  0  0
  -22.5618   21.3400  -38.9546 O   0  0  0  0  0  0  0  0  0  0  0  0
  -22.2705   22.6774  -38.8270 C   0  0  2  0  0  0  0  0  0  0  0  0
  -21.8120   23.4013  -40.0179 C   0  0  0  0  0  0  0  0  0  0  0  0
  -21.8951   24.6393  -39.9509 O   0  0  0  0  0  0  0  0  0  0  0  0
  -21.2655   22.8893  -41.2751 C   0  0  0  0  0  0  0  0  0  0  0  0
  -21.0102   21.0972  -41.1925 Cl  0  0  0  0  0  0  0  0  0  0  0  0
  -21.0013   22.6788  -37.9144 C   0  0  1  0  0  0  0  0  0  0  0  0
  -19.7585   22.6287  -38.6988 C   0  0  0  0  0  0  0  0  0  0  0  0
  -21.1558   23.9252  -37.0546 C   0  0  0  0  0  0  0  0  0  0  0  0
  -22.5431   23.6742  -36.6279 C   0  0  1  0  0  0  0  0  0  0  0  0
  -23.2862   24.7539  -35.9169 C   0  0  2  0  0  0  0  0  0  0  0  0
  -22.4550   25.3055  -34.7676 C   0  0  0  0  0  0  0  0  0  0  0  0
  -23.3022   26.3286  -34.0537 C   0  0  0  0  0  0  0  0  0  0  0  0
  -24.6088   25.7229  -33.6482 C   0  0  0  0  0  0  0  0  0  0  0  0
  -24.9455   25.7904  -32.3941 C   0  0  0  0  0  0  0  0  0  0  0  0
  -26.1990   25.2225  -31.9386 C   0  0  0  0  0  0  0  0  0  0  0  0
  -26.4759   25.3150  -30.7171 O   0  0  0  0  0  0  0  0  0  0  0  0
  -27.0456   24.5866  -32.9303 C   0  0  0  0  0  0  0  0  0  0  0  0
  -26.6802   24.5301  -34.2013 C   0  0  0  0  0  0  0  0  0  0  0  0
  -25.4171   25.0856  -34.7352 C   0  0  1  0  0  0  0  0  0  0  0  0
  -25.7862   26.2592  -35.6508 C   0  0  0  0  0  0  0  0  0  0  0  0
  -24.5274   24.0737  -35.3949 C   0  0  2  0  0  0  0  0  0  0  0  0
  -24.0409   23.3161  -34.3012 F   0  0  0  0  0  0  0  0  0  0  0  0
  -25.1701   23.1422  -36.3438 C   0  0  1  0  0  0  0  0  0  0  0  0
  -26.3887   23.7178  -36.7822 O   0  0  0  0  0  0  0  0  0  0  0  0
  -24.4764   22.6754  -37.5566 C   0  0  0  0  0  0  0  0  0  0  0  0
  -23.2389   23.4396  -37.9467 C   0  0  2  0  0  0  0  0  0  0  0  0
  -23.6768   24.6723  -38.6569 C   0  0  0  0  0  0  0  0  0  0  0  0
  1  2  1  0
  2  3  1  0
  3  4  2  0
  3  5  1  0
  6  5  1  6
  6  7  1  0
  7  8  2  0
  7  9  1  0
  9 10  1  0
  6 11  1  0
 11 12  1  6
 11 13  1  0
 14 13  1  6
 14 15  1  0
 15 16  1  1
 16 17  1  0
 17 18  1  0
 18 19  2  0
 19 20  1  0
 20 21  2  0
 20 22  1  0
 22 23  2  0
 23 24  1  0
 24 25  1  6
 24 26  1  0
 26 27  1  1
 26 28  1  0
 28 29  1  6
 28 30  1  0
 30 31  1  0
 31 32  1  6
 31  6  1  0
 31 14  1  0
 26 15  1  0
 24 18  1  0
M  END
$$$$
