
     RDKit          3D

 22 24  0  0  0  0  0  0  0  0999 V2000
  -20.6116   30.9581  -21.2143 C   0  0  0  0  0  0  0  0  0  0  0  0
  -21.0245   31.9002  -22.3353 C   0  0  0  0  0  0  0  0  0  0  0  0
  -19.9003   32.5005  -22.9796 N   0  0  0  0  0  0  0  0  0  0  0  0
  -19.2229   33.6530  -22.4543 C   0  0  0  0  0  0  0  0  0  0  0  0
  -19.1188   33.7156  -21.2020 O   0  0  0  0  0  0  0  0  0  0  0  0
  -18.6807   34.7054  -23.3658 C   0  0  1  0  0  0  0  0  0  0  0  0
  -19.2211   35.9050  -22.9908 O   0  0  0  0  0  0  0  0  0  0  0  0
  -18.2063   36.8325  -22.8624 C   0  0  1  0  0  0  0  0  0  0  0  0
  -18.5398   37.9241  -21.9878 N   0  0  0  0  0  0  0  0  0  0  0  0
  -19.6007   38.0588  -21.1709 C   0  0  0  0  0  0  0  0  0  0  0  0
  -19.5433   39.2408  -20.5150 N   0  0  0  0  0  0  0  0  0  0  0  0
  -18.4473   39.8839  -20.8983 C   0  0  0  0  0  0  0  0  0  0  0  0
  -17.9204   41.1167  -20.5389 C   0  0  0  0  0  0  0  0  0  0  0  0
  -18.5524   41.9739  -19.5948 N   0  0  0  0  0  0  0  0  0  0  0  0
  -16.7658   41.4604  -21.1392 N   0  0  0  0  0  0  0  0  0  0  0  0
  -16.1435   40.6734  -22.0353 C   0  0  0  0  0  0  0  0  0  0  0  0
  -16.6723   39.4811  -22.3695 N   0  0  0  0  0  0  0  0  0  0  0  0
  -17.8223   39.0619  -21.8168 C   0  0  0  0  0  0  0  0  0  0  0  0
  -17.0279   36.0199  -22.3700 C   0  0  2  0  0  0  0  0  0  0  0  0
  -15.8333   36.6676  -22.6506 O   0  0  0  0  0  0  0  0  0  0  0  0
  -17.1970   34.7691  -23.2266 C   0  0  2  0  0  0  0  0  0  0  0  0
  -16.5734   34.9682  -24.4366 O   0  0  0  0  0  0  0  0  0  0  0  0
  1  2  1  0
  2  3  1  0
  3  4  1  0
  4  5  2  0
  6  4  1  1
  6  7  1  0
  7  8  1  0
  8  9  1  1
  9 10  1  0
 10 11  2  0
 11 12  1  0
 12 13  2  0
 13 14  1  0
 13 15  1  0
 15 16  2  0
 16 17  1  0
 17 18  2  0
  8 19  1  0
 19 20  1  6
 19 21  1  0
 21 22  1  6
 21  6  1  0
 18  9  1  0
 18 12  1  0
M  END
$$$$
