
     RDKit          3D

 23 23  0  0  0  0  0  0  0  0999 V2000
  -16.0817   46.0257  -22.0937 C   0  0  0  0  0  0  0  0  0  0  0  0
  -16.8830   44.7598  -21.6258 C   0  0  0  0  0  0  0  0  0  0  0  0
  -17.9099   45.2838  -20.6113 C   0  0  0  0  0  0  0  0  0  0  0  0
  -17.4754   44.2458  -22.7947 N   0  0  0  0  0  0  0  0  0  0  0  0
  -17.7320   42.8712  -22.8503 C   0  0  0  0  0  0  0  0  0  0  0  0
  -18.7859   42.3475  -21.9332 C   0  0  0  0  0  0  0  0  0  0  0  0
  -18.5138   42.4714  -20.5895 O   0  0  0  0  0  0  0  0  0  0  0  0
  -19.1662   40.8989  -22.2594 C   0  0  0  0  0  0  0  0  0  0  0  0
  -18.0873   40.0625  -21.8823 O   0  0  0  0  0  0  0  0  0  0  0  0
  -18.1821   38.6719  -22.0790 C   0  0  0  0  0  0  0  0  0  0  0  0
  -19.3095   38.1116  -22.6399 C   0  0  0  0  0  0  0  0  0  0  0  0
  -19.4057   36.7426  -22.8339 C   0  0  0  0  0  0  0  0  0  0  0  0
  -18.3753   35.9023  -22.4709 C   0  0  0  0  0  0  0  0  0  0  0  0
  -18.4889   34.4099  -22.6888 C   0  0  0  0  0  0  0  0  0  0  0  0
  -19.0984   33.7411  -21.5014 C   0  0  0  0  0  0  0  0  0  0  0  0
  -19.2833   32.4129  -21.5990 O   0  0  0  0  0  0  0  0  0  0  0  0
  -18.3257   31.5118  -21.7455 C   0  0  0  0  0  0  0  0  0  0  0  0
  -17.4168   31.5473  -22.9321 C   0  0  0  0  0  0  0  0  0  0  0  0
  -16.3805   30.4149  -22.9784 C   0  0  0  0  0  0  0  0  0  0  0  0
  -15.9229   31.7602  -22.6607 C   0  0  0  0  0  0  0  0  0  0  0  0
  -17.2562   36.4680  -21.9130 C   0  0  0  0  0  0  0  0  0  0  0  0
  -17.1542   37.8525  -21.7148 C   0  0  0  0  0  0  0  0  0  0  0  0
  -17.7804   37.6949  -22.0520 Cl  0  0  0  0  0  0  0  0  0  0  0  0
  1  2  1  0
  2  3  1  0
  2  4  1  0
  4  5  1  0
  5  6  1  0
  6  7  1  0
  6  8  1  0
  8  9  1  0
  9 10  1  0
 10 11  2  0
 11 12  1  0
 12 13  2  0
 13 14  1  0
 14 15  1  0
 15 16  1  0
 16 17  1  0
 17 18  1  0
 18 19  1  0
 19 20  1  0
 13 21  1  0
 21 22  2  0
 22 10  1  0
 20 18  1  0
M  END
$$$$
