
     RDKit          3D

 16 17  0  0  0  0  0  0  0  0999 V2000
  -16.7567   38.2555  -23.7362 C   0  0  0  0  0  0  0  0  0  0  0  0
  -17.2695   37.6933  -22.4201 C   0  0  0  0  0  0  0  0  0  0  0  0
  -18.2071   36.7543  -22.7144 O   0  0  0  0  0  0  0  0  0  0  0  0
  -18.5440   35.5507  -22.2373 C   0  0  0  0  0  0  0  0  0  0  0  0
  -19.8812   35.2019  -22.1451 C   0  0  0  0  0  0  0  0  0  0  0  0
  -21.1342   36.3148  -22.6415 Cl  0  0  0  0  0  0  0  0  0  0  0  0
  -20.2761   33.9515  -21.6515 C   0  0  0  0  0  0  0  0  0  0  0  0
  -19.3346   33.0299  -21.2418 C   0  0  0  0  0  0  0  0  0  0  0  0
  -17.9999   33.3685  -21.3298 C   0  0  0  0  0  0  0  0  0  0  0  0
  -17.6291   34.6185  -21.8243 C   0  0  0  0  0  0  0  0  0  0  0  0
  -15.9508   35.0221  -21.9264 Cl  0  0  0  0  0  0  0  0  0  0  0  0
  -17.7957   38.8829  -21.6819 C   0  0  0  0  0  0  0  0  0  0  0  0
  -17.6196   39.1276  -20.4292 N   0  0  0  0  0  0  0  0  0  0  0  0
  -18.2589   40.3555  -20.0395 C   0  0  0  0  0  0  0  0  0  0  0  0
  -18.7978   40.9801  -21.2973 C   0  0  0  0  0  0  0  0  0  0  0  0
  -18.5741   39.9167  -22.2713 N   0  0  0  0  0  0  0  0  0  0  0  0
  1  2  1  0
  2  3  1  0
  3  4  1  0
  4  5  2  0
  5  6  1  0
  5  7  1  0
  7  8  2  0
  8  9  1  0
  9 10  2  0
 10 11  1  0
  2 12  1  0
 12 13  2  0
 13 14  1  0
 14 15  1  0
 15 16  1  0
 10  4  1  0
 16 12  1  0
M  END
$$$$
