
     RDKit          3D

 11 11  0  0  0  0  0  0  0  0999 V2000
  -16.3264   37.4394  -22.0170 O   0  0  0  0  0  0  0  0  0  0  0  0
  -17.4333   36.8087  -21.9956 C   0  0  0  0  0  0  0  0  0  0  0  0
  -18.3808   37.2602  -22.9511 O   0  0  0  0  0  0  0  0  0  0  0  0
  -17.7640   35.7002  -21.0876 C   0  0  0  0  0  0  0  0  0  0  0  0
  -18.3562   34.5037  -21.7404 C   0  0  0  0  0  0  0  0  0  0  0  0
  -17.4713   33.5251  -22.1871 C   0  0  0  0  0  0  0  0  0  0  0  0
  -17.9735   32.3601  -22.7713 C   0  0  0  0  0  0  0  0  0  0  0  0
  -19.3271   32.1609  -22.9132 C   0  0  0  0  0  0  0  0  0  0  0  0
  -19.7728   30.9996  -23.4965 O   0  0  0  0  0  0  0  0  0  0  0  0
  -20.1751   33.1453  -22.4626 C   0  0  0  0  0  0  0  0  0  0  0  0
  -19.7013   34.3188  -21.8767 C   0  0  0  0  0  0  0  0  0  0  0  0
  1  2  2  0
  2  3  1  0
  2  4  1  0
  4  5  1  0
  5  6  2  0
  6  7  1  0
  7  8  2  0
  8  9  1  0
  8 10  1  0
 10 11  2  0
 11  5  1  0
M  END
$$$$
