
     RDKit          3D

 61 68  0  0  0  0  0  0  0  0999 V2000
  -16.1794   19.8178  -30.8857 C   0  0  0  0  0  0  0  0  0  0  0  0
  -16.2270   19.7963  -32.3951 C   0  0  0  0  0  0  0  0  0  0  0  0
  -16.5137   20.8332  -33.1923 N   0  0  0  0  0  0  0  0  0  0  0  0
  -16.4088   20.4661  -34.4703 N   0  0  0  0  0  0  0  0  0  0  0  0
  -16.6868   21.3619  -35.6075 C   0  0  0  0  0  0  0  0  0  0  0  0
  -16.0515   19.1846  -34.5421 C   0  0  0  0  0  0  0  0  0  0  0  0
  -15.8599   18.3126  -35.7465 C   0  0  0  0  0  0  0  0  0  0  0  0
  -14.6034   18.2607  -36.2712 O   0  0  0  0  0  0  0  0  0  0  0  0
  -14.1018   18.2985  -37.5268 C   0  0  0  0  0  0  0  0  0  0  0  0
  -12.7845   17.9116  -37.7707 C   0  0  0  0  0  0  0  0  0  0  0  0
  -12.2487   17.9405  -39.0328 C   0  0  0  0  0  0  0  0  0  0  0  0
  -12.9609   18.3478  -40.1353 C   0  0  0  0  0  0  0  0  0  0  0  0
  -12.4091   18.3844  -41.4425 N   0  0  0  0  0  0  0  0  0  0  0  0
  -13.0818   19.1934  -42.4254 C   0  0  0  0  0  0  0  0  0  0  0  0
  -12.6259   18.9544  -43.8405 C   0  0  0  0  0  0  0  0  0  0  0  0
  -11.3332   18.4484  -43.9660 N   0  0  0  0  0  0  0  0  0  0  0  0
  -10.8677   17.6244  -45.3451 S   0  0  0  0  0  6  0  0  0  0  0  0
   -9.5057   18.0597  -45.8724 O   0  0  0  0  0  0  0  0  0  0  0  0
  -11.9045   17.8657  -46.4330 O   0  0  0  0  0  0  0  0  0  0  0  0
  -10.8149   15.9104  -45.0895 N   0  0  0  0  0  0  0  0  0  0  0  0
   -9.9046   15.5133  -44.0582 C   0  0  0  0  0  0  0  0  0  0  0  0
  -12.1516   15.3815  -44.8676 C   0  0  0  0  0  0  0  0  0  0  0  0
  -10.4867   18.3523  -42.8590 C   0  0  0  0  0  0  0  0  0  0  0  0
  -11.2251   17.6292  -41.7278 C   0  0  0  0  0  0  0  0  0  0  0  0
  -14.2802   18.7377  -39.9055 C   0  0  0  0  0  0  0  0  0  0  0  0
  -14.8220   18.7102  -38.6416 C   0  0  0  0  0  0  0  0  0  0  0  0
  -15.9307   18.7335  -33.2145 C   0  0  0  0  0  0  0  0  0  0  0  0
  -15.5227   17.3852  -32.8701 C   0  0  0  0  0  0  0  0  0  0  0  0
  -14.1559   17.0806  -32.9440 C   0  0  0  0  0  0  0  0  0  0  0  0
  -13.6650   15.8565  -32.6502 C   0  0  0  0  0  0  0  0  0  0  0  0
  -14.5099   14.8625  -32.2649 C   0  0  0  0  0  0  0  0  0  0  0  0
  -15.8651   15.1177  -32.1784 C   0  0  0  0  0  0  0  0  0  0  0  0
  -16.8827   14.2546  -31.8461 C   0  0  0  0  0  0  0  0  0  0  0  0
  -16.7103   12.8376  -31.4678 C   0  0  0  0  0  0  0  0  0  0  0  0
  -16.4265   12.6908  -29.9826 C   0  0  0  0  0  0  0  0  0  0  0  0
  -16.9063   11.4076  -29.3977 C   0  0  0  0  0  0  0  0  0  0  0  0
  -15.8801   10.4378  -29.6821 O   0  0  0  0  0  0  0  0  0  0  0  0
  -16.1876    9.0872  -29.7397 C   0  0  0  0  0  0  0  0  0  0  0  0
  -17.0600    8.5882  -28.7891 C   0  0  0  0  0  0  0  0  0  0  0  0
  -17.3688    7.2520  -28.8392 C   0  0  0  0  0  0  0  0  0  0  0  0
  -16.8183    6.4466  -29.8126 C   0  0  0  0  0  0  0  0  0  0  0  0
  -15.9557    6.9597  -30.7461 C   0  0  0  0  0  0  0  0  0  0  0  0
  -15.4177    6.1263  -31.7167 C   0  0  0  0  0  0  0  0  0  0  0  0
  -14.5488    6.6709  -32.6511 C   0  0  0  0  0  0  0  0  0  0  0  0
  -14.2391    8.0107  -32.6008 C   0  0  0  0  0  0  0  0  0  0  0  0
  -14.7619    8.8532  -31.6465 C   0  0  0  0  0  0  0  0  0  0  0  0
  -15.6225    8.3006  -30.7257 C   0  0  0  0  0  0  0  0  0  0  0  0
  -18.0555   15.0048  -31.9450 C   0  0  0  0  0  0  0  0  0  0  0  0
  -19.3614   14.4307  -31.6943 C   0  0  0  0  0  0  0  0  0  0  0  0
  -19.9650   13.8380  -32.6181 O   0  0  0  0  0  0  0  0  0  0  0  0
  -19.9989   14.4962  -30.4951 O   0  0  0  0  0  0  0  0  0  0  0  0
  -17.7261   16.2540  -32.3162 N   0  0  0  0  0  0  0  0  0  0  0  0
  -18.6043   17.3827  -32.4992 C   0  0  0  0  0  0  0  0  0  0  0  0
  -18.5255   18.0367  -33.8387 C   0  0  0  0  0  0  0  0  0  0  0  0
  -19.5089   17.5729  -34.8289 N   0  0  0  0  0  0  0  0  0  0  0  0
  -20.7604   18.2536  -34.4990 C   0  0  0  0  0  0  0  0  0  0  0  0
  -21.3138   19.0121  -35.6583 C   0  0  0  0  0  0  0  0  0  0  0  0
  -21.3156   18.2865  -36.8316 O   0  0  0  0  0  0  0  0  0  0  0  0
  -20.0843   17.7864  -37.1751 C   0  0  0  0  0  0  0  0  0  0  0  0
  -19.0854   18.1683  -36.1313 C   0  0  0  0  0  0  0  0  0  0  0  0
  -16.3641   16.3727  -32.4789 C   0  0  0  0  0  0  0  0  0  0  0  0
  1  2  1  0
  2  3  2  0
  3  4  1  0
  4  5  1  0
  4  6  1  0
  6  7  1  0
  7  8  1  0
  8  9  1  0
  9 10  2  0
 10 11  1  0
 11 12  2  0
 12 13  1  0
 13 14  1  0
 14 15  1  0
 15 16  1  0
 16 17  1  0
 17 18  2  0
 17 19  2  0
 17 20  1  0
 20 21  1  0
 20 22  1  0
 16 23  1  0
 23 24  1  0
 12 25  1  0
 25 26  2  0
  6 27  2  0
 27 28  1  0
 28 29  2  0
 29 30  1  0
 30 31  2  0
 31 32  1  0
 32 33  1  0
 33 34  1  0
 34 35  1  0
 35 36  1  0
 36 37  1  0
 37 38  1  0
 38 39  2  0
 39 40  1  0
 40 41  2  0
 41 42  1  0
 42 43  2  0
 43 44  1  0
 44 45  2  0
 45 46  1  0
 46 47  2  0
 33 48  2  0
 48 49  1  0
 49 50  2  0
 49 51  1  0
 48 52  1  0
 52 53  1  0
 53 54  1  0
 54 55  1  0
 55 56  1  0
 56 57  1  0
 57 58  1  0
 58 59  1  0
 59 60  1  0
 52 61  1  0
 27  2  1  0
 61 28  1  0
 26  9  1  0
 61 32  2  0
 24 13  1  0
 47 38  1  0
 60 55  1  0
 47 42  1  0
M  END
$$$$
