
     RDKit          3D

 29 32  0  0  0  0  0  0  0  0999 V2000
  -11.7588   -2.4679  -33.5682 C   0  0  0  0  0  0  0  0  0  0  0  0
  -11.7149   -1.1015  -32.9598 C   0  0  0  0  0  0  0  0  0  0  0  0
  -13.0265   -0.3856  -32.9289 C   0  0  1  0  0  0  0  0  0  0  0  0
  -13.9019   -1.1433  -32.0262 N   0  0  0  0  0  0  0  0  0  0  0  0
  -15.2027   -1.5452  -32.4825 C   0  0  0  0  0  0  0  0  0  0  0  0
  -15.6602   -1.2805  -33.6043 O   0  0  0  0  0  0  0  0  0  0  0  0
  -16.0517   -2.3285  -31.5537 C   0  0  0  0  0  0  0  0  0  0  0  0
  -15.5824   -3.2912  -30.6829 C   0  0  0  0  0  0  0  0  0  0  0  0
  -16.7060   -3.7580  -30.0021 C   0  0  0  0  0  0  0  0  0  0  0  0
  -16.6732   -4.7823  -28.9719 C   0  0  0  0  0  0  0  0  0  0  0  0
  -17.8212   -5.1746  -28.5608 O   0  0  0  0  0  0  0  0  0  0  0  0
  -15.5159   -5.3450  -28.4182 N   0  0  0  0  0  0  0  0  0  0  0  0
  -15.5455   -6.5683  -27.6010 C   0  0  0  0  0  0  0  0  0  0  0  0
  -14.1099   -7.0285  -27.6538 C   0  0  0  0  0  0  0  0  0  0  0  0
  -13.3967   -5.6830  -27.4579 C   0  0  0  0  0  0  0  0  0  0  0  0
  -14.1597   -4.8795  -28.5319 C   0  0  2  0  0  0  0  0  0  0  0  0
  -13.9256   -3.4466  -28.2394 C   0  0  0  0  0  0  0  0  0  0  0  0
  -17.7717   -3.1094  -30.4447 N   0  0  0  0  0  0  0  0  0  0  0  0
  -17.3976   -2.2421  -31.3831 C   0  0  0  0  0  0  0  0  0  0  0  0
  -18.3980   -1.3659  -32.0740 C   0  0  0  0  0  0  0  0  0  0  0  0
  -19.6397   -1.9248  -32.1697 O   0  0  0  0  0  0  0  0  0  0  0  0
  -19.8653   -3.1097  -31.5383 C   0  0  0  0  0  0  0  0  0  0  0  0
  -19.2227   -3.0975  -30.1697 C   0  0  0  0  0  0  0  0  0  0  0  0
  -12.9274    1.0014  -32.3994 C   0  0  0  0  0  0  0  0  0  0  0  0
  -12.7890    1.2533  -31.0494 C   0  0  0  0  0  0  0  0  0  0  0  0
  -12.7030    2.5497  -30.5838 C   0  0  0  0  0  0  0  0  0  0  0  0
  -12.7506    3.6427  -31.4298 C   0  0  0  0  0  0  0  0  0  0  0  0
  -12.8892    3.3917  -32.7765 C   0  0  0  0  0  0  0  0  0  0  0  0
  -12.9748    2.0943  -33.2391 C   0  0  0  0  0  0  0  0  0  0  0  0
  1  2  1  0
  3  2  1  1
  3  4  1  0
  4  5  1  0
  5  6  2  0
  5  7  1  0
  7  8  1  0
  8  9  2  0
  9 10  1  0
 10 11  2  0
 10 12  1  0
 12 13  1  0
 13 14  1  0
 14 15  1  0
 15 16  1  0
 16 17  1  1
  9 18  1  0
 18 19  1  0
 19 20  1  0
 20 21  1  0
 21 22  1  0
 22 23  1  0
  3 24  1  0
 24 25  2  0
 25 26  1  0
 26 27  2  0
 27 28  1  0
 28 29  2  0
 19  7  2  0
 29 24  1  0
 16 12  1  0
 23 18  1  0
M  END
$$$$
