
     RDKit          3D

 33 38  0  0  0  0  0  0  0  0999 V2000
  -21.9281   24.3776  -34.4296 C   0  0  0  0  0  0  0  0  0  0  0  0
  -22.8870   25.0931  -33.5311 C   0  0  0  0  0  0  0  0  0  0  0  0
  -22.7299   26.5889  -33.7923 C   0  0  0  0  0  0  0  0  0  0  0  0
  -24.2656   24.7462  -33.7878 N   0  0  0  0  0  0  0  0  0  0  0  0
  -25.1961   25.5358  -33.0497 C   0  0  0  0  0  0  0  0  0  0  0  0
  -26.5833   24.9741  -33.3280 C   0  0  0  0  0  0  0  0  0  0  0  0
  -26.6793   23.7098  -32.6870 N   0  0  0  0  0  0  0  0  0  0  0  0
  -26.8975   23.8186  -31.2616 C   0  0  0  0  0  0  0  0  0  0  0  0
  -27.4790   22.6012  -30.6529 C   0  0  0  0  0  0  0  0  0  0  0  0
  -28.7000   22.0720  -31.0079 C   0  0  0  0  0  0  0  0  0  0  0  0
  -28.8647   20.9747  -30.2293 N   0  0  0  0  0  0  0  0  0  0  0  0
  -27.7870   20.8504  -29.4396 C   0  0  0  0  0  0  0  0  0  0  0  0
  -27.5849   19.7754  -28.4442 C   0  0  0  0  0  0  0  0  0  0  0  0
  -27.7586   18.4642  -28.7871 C   0  0  0  0  0  0  0  0  0  0  0  0
  -27.5742   17.4510  -27.8708 C   0  0  0  0  0  0  0  0  0  0  0  0
  -27.7483   16.0417  -28.2029 C   0  0  0  0  0  0  0  0  0  0  0  0
  -28.7304   15.3379  -27.4955 C   0  0  0  0  0  0  0  0  0  0  0  0
  -28.9740   14.0010  -27.7390 C   0  0  0  0  0  0  0  0  0  0  0  0
  -28.2442   13.3331  -28.6941 C   0  0  0  0  0  0  0  0  0  0  0  0
  -27.2668   14.0367  -29.3968 C   0  0  0  0  0  0  0  0  0  0  0  0
  -26.4252   13.6253  -30.3670 N   0  0  0  0  0  0  0  0  0  0  0  0
  -25.6616   14.6656  -30.7379 C   0  0  0  0  0  0  0  0  0  0  0  0
  -26.0287   15.7756  -29.9794 C   0  0  0  0  0  0  0  0  0  0  0  0
  -27.0264   15.3744  -29.1498 C   0  0  0  0  0  0  0  0  0  0  0  0
  -27.2053   17.8343  -26.5901 C   0  0  0  0  0  0  0  0  0  0  0  0
  -27.0262   19.1540  -26.2289 C   0  0  0  0  0  0  0  0  0  0  0  0
  -26.6748   19.7673  -25.0661 N   0  0  0  0  0  0  0  0  0  0  0  0
  -26.6515   21.0715  -25.2794 N   0  0  0  0  0  0  0  0  0  0  0  0
  -26.9737   21.3591  -26.5406 C   0  0  0  0  0  0  0  0  0  0  0  0
  -27.2173   20.1422  -27.1648 C   0  0  0  0  0  0  0  0  0  0  0  0
  -26.9902   21.8441  -29.7303 O   0  0  0  0  0  0  0  0  0  0  0  0
  -25.5520   22.8444  -32.8914 C   0  0  0  0  0  0  0  0  0  0  0  0
  -24.5261   23.3528  -33.8291 C   0  0  0  0  0  0  0  0  0  0  0  0
  1  2  1  0
  2  3  1  0
  2  4  1  0
  4  5  1  0
  5  6  1  0
  6  7  1  0
  7  8  1  0
  8  9  1  0
  9 10  2  0
 10 11  1  0
 11 12  2  0
 12 13  1  0
 13 14  2  0
 14 15  1  0
 15 16  1  0
 16 17  2  0
 17 18  1  0
 18 19  2  0
 19 20  1  0
 20 21  1  0
 21 22  1  0
 22 23  2  0
 23 24  1  0
 15 25  2  0
 25 26  1  0
 26 27  1  0
 27 28  1  0
 28 29  2  0
 29 30  1  0
 12 31  1  0
  7 32  1  0
 32 33  1  0
 33  4  1  0
 31  9  1  0
 30 13  1  0
 24 16  1  0
 30 26  2  0
 24 20  2  0
M  END
$$$$
