
     RDKit          3D

 22 21  0  0  0  0  0  0  0  0999 V2000
  -13.5866   18.8910  -33.6166 C   0  0  0  0  0  0  0  0  0  0  0  0
  -14.5297   19.1656  -32.4688 C   0  0  0  0  0  0  0  0  0  0  0  0
  -15.9232   18.7874  -32.8748 C   0  0  0  0  0  0  0  0  0  0  0  0
  -16.8936   19.1454  -31.7477 C   0  0  0  0  0  0  0  0  0  0  0  0
  -18.1967   19.6655  -32.3424 C   0  0  0  0  0  0  0  0  0  0  0  0
  -19.1515   20.0452  -31.2664 C   0  0  0  0  0  0  0  0  0  0  0  0
  -20.4116   20.2633  -31.5887 C   0  0  0  0  0  0  0  0  0  0  0  0
  -21.4643   20.5994  -30.5921 C   0  0  0  0  0  0  0  0  0  0  0  0
  -22.7995   20.7496  -31.2007 C   0  0  0  0  0  0  0  0  0  0  0  0
  -23.8752   20.6741  -30.4307 C   0  0  0  0  0  0  0  0  0  0  0  0
  -24.0051   19.4812  -29.5187 C   0  0  0  0  0  0  0  0  0  0  0  0
  -25.2236   19.6844  -28.6889 C   0  0  0  0  0  0  0  0  0  0  0  0
  -26.2865   18.8912  -28.7841 C   0  0  0  0  0  0  0  0  0  0  0  0
  -27.5790   19.2134  -28.1181 C   0  0  0  0  0  0  0  0  0  0  0  0
  -28.4593   18.0512  -27.9561 C   0  0  0  0  0  0  0  0  0  0  0  0
  -29.7334   18.1353  -27.5905 C   0  0  0  0  0  0  0  0  0  0  0  0
  -30.6008   16.9223  -27.3840 C   0  0  0  0  0  0  0  0  0  0  0  0
  -31.3984   17.0249  -26.1215 C   0  0  0  0  0  0  0  0  0  0  0  0
  -32.7622   16.4360  -26.3867 C   0  0  0  0  0  0  0  0  0  0  0  0
  -33.1399   16.4911  -27.8012 C   0  0  0  0  0  0  0  0  0  0  0  0
  -32.9706   15.4788  -28.5219 O   0  0  0  0  0  0  0  0  0  0  0  0
  -33.6789   17.6284  -28.3680 O   0  0  0  0  0  0  0  0  0  0  0  0
  1  2  1  0
  2  3  1  0
  3  4  1  0
  4  5  1  0
  5  6  1  0
  6  7  2  0
  7  8  1  0
  8  9  1  0
  9 10  2  0
 10 11  1  0
 11 12  1  0
 12 13  2  0
 13 14  1  0
 14 15  1  0
 15 16  2  0
 16 17  1  0
 17 18  1  0
 18 19  1  0
 19 20  1  0
 20 21  2  0
 20 22  1  0
M  END
$$$$
