
     RDKit          3D

 30 33  0  0  0  0  0  0  0  0999 V2000
  -21.0330   18.4146  -31.4718 O   0  0  0  0  0  0  0  0  0  0  0  0
  -19.9917   18.2056  -32.1604 C   0  0  0  0  0  0  0  0  0  0  0  0
  -18.7891   18.8385  -31.6700 C   0  0  0  0  0  0  0  0  0  0  0  0
  -18.7395   20.2373  -31.6701 C   0  0  0  0  0  0  0  0  0  0  0  0
  -17.5986   20.9326  -31.2995 C   0  0  0  0  0  0  0  0  0  0  0  0
  -16.4637   20.2632  -30.9158 C   0  0  0  0  0  0  0  0  0  0  0  0
  -15.3497   20.9718  -30.5558 F   0  0  0  0  0  0  0  0  0  0  0  0
  -16.4965   18.8966  -30.9100 C   0  0  0  0  0  0  0  0  0  0  0  0
  -15.3477   18.2735  -30.5657 F   0  0  0  0  0  0  0  0  0  0  0  0
  -17.6548   18.1783  -31.2829 C   0  0  0  0  0  0  0  0  0  0  0  0
  -17.5845   16.7626  -31.1967 N   0  0  0  0  0  0  0  0  0  0  0  0
  -16.5290   15.9314  -31.6218 C   0  0  0  0  0  0  0  0  0  0  0  0
  -15.6482   16.3607  -32.6003 C   0  0  0  0  0  0  0  0  0  0  0  0
  -14.6103   15.5962  -33.0887 C   0  0  0  0  0  0  0  0  0  0  0  0
  -14.3966   14.3286  -32.6074 C   0  0  0  0  0  0  0  0  0  0  0  0
  -12.8050   13.1307  -33.3426 I   0  0  0  0  0  0  0  0  0  0  0  0
  -15.2459   13.8660  -31.6379 C   0  0  0  0  0  0  0  0  0  0  0  0
  -16.3003   14.6542  -31.1485 C   0  0  0  0  0  0  0  0  0  0  0  0
  -17.1098   14.1460  -30.2075 F   0  0  0  0  0  0  0  0  0  0  0  0
  -20.0818   17.4032  -33.3105 N   0  0  0  0  0  0  0  0  0  0  0  0
  -21.2404   16.6285  -33.8182 C   0  0  0  0  0  0  0  0  0  0  0  0
  -20.5951   16.3748  -35.1168 C   0  0  0  0  0  0  0  0  0  0  0  0
  -20.5655   15.0354  -35.4428 O   0  0  0  0  0  0  0  0  0  0  0  0
  -21.0917   17.2064  -36.2928 C   0  0  0  0  0  0  0  0  0  0  0  0
  -19.9878   17.2949  -37.2910 C   0  0  0  0  0  0  0  0  0  0  0  0
  -20.3842   17.2772  -38.7121 C   0  0  0  0  0  0  0  0  0  0  0  0
  -21.6508   16.5702  -39.0327 C   0  0  0  0  0  0  0  0  0  0  0  0
  -22.0774   15.7049  -37.8657 C   0  0  0  0  0  0  0  0  0  0  0  0
  -22.2994   16.6224  -36.7603 N   0  0  0  0  0  0  0  0  0  0  0  0
  -19.3531   16.9284  -34.4542 C   0  0  0  0  0  0  0  0  0  0  0  0
  1  2  2  0
  2  3  1  0
  3  4  2  0
  4  5  1  0
  5  6  2  0
  6  7  1  0
  6  8  1  0
  8  9  1  0
  8 10  2  0
 10 11  1  0
 11 12  1  0
 12 13  2  0
 13 14  1  0
 14 15  2  0
 15 16  1  0
 15 17  1  0
 17 18  2  0
 18 19  1  0
  2 20  1  0
 20 21  1  0
 21 22  1  0
 22 23  1  0
 22 24  1  0
 24 25  1  0
 25 26  1  0
 26 27  1  0
 27 28  1  0
 28 29  1  0
 22 30  1  0
 10  3  1  0
 18 12  1  0
 30 20  1  0
 29 24  1  0
M  END
$$$$
