
     RDKit          3D

 23 25  0  0  0  0  0  0  0  0999 V2000
  -17.2748   44.9023  -20.2037 C   0  0  0  0  0  0  0  0  0  0  0  0
  -16.3725   43.7486  -20.4729 C   0  0  0  0  0  0  0  0  0  0  0  0
  -15.0319   43.8906  -20.6704 N   0  0  0  0  0  0  0  0  0  0  0  0
  -14.4857   42.6754  -20.8882 C   0  0  0  0  0  0  0  0  0  0  0  0
  -15.5018   41.7949  -20.8209 N   0  0  0  0  0  0  0  0  0  0  0  0
  -16.6735   42.4171  -20.5680 C   0  0  0  0  0  0  0  0  0  0  0  0
  -17.9975   41.8019  -20.4086 C   0  0  0  0  0  0  0  0  0  0  0  0
  -18.1338   40.5328  -21.1068 N   0  0  0  0  0  0  0  0  0  0  0  0
  -17.7600   39.3287  -20.4171 C   0  0  0  0  0  0  0  0  0  0  0  0
  -18.2884   38.0450  -20.9417 C   0  0  0  0  0  0  0  0  0  0  0  0
  -18.7718   38.0422  -22.3335 C   0  0  0  0  0  0  0  0  0  0  0  0
  -18.9325   39.1854  -23.0670 C   0  0  0  0  0  0  0  0  0  0  0  0
  -19.3931   38.8155  -24.3131 C   0  0  0  0  0  0  0  0  0  0  0  0
  -19.7238   39.5165  -25.4433 C   0  0  0  0  0  0  0  0  0  0  0  0
  -20.1705   38.8809  -26.5950 C   0  0  0  0  0  0  0  0  0  0  0  0
  -20.2762   37.5005  -26.5791 C   0  0  0  0  0  0  0  0  0  0  0  0
  -19.9383   36.7969  -25.4279 C   0  0  0  0  0  0  0  0  0  0  0  0
  -19.4949   37.4426  -24.2865 C   0  0  0  0  0  0  0  0  0  0  0  0
  -19.1150   36.9589  -23.0715 N   0  0  0  0  0  0  0  0  0  0  0  0
  -19.0926   35.5638  -22.6579 C   0  0  0  0  0  0  0  0  0  0  0  0
  -18.6059   40.4606  -22.4383 C   0  0  0  0  0  0  0  0  0  0  0  0
  -18.7581   41.5137  -23.1308 O   0  0  0  0  0  0  0  0  0  0  0  0
  -18.4017   39.4846  -22.7338 Cl  0  0  0  0  0  0  0  0  0  0  0  0
  1  2  1  0
  2  3  1  0
  3  4  1  0
  4  5  2  0
  5  6  1  0
  6  7  1  0
  7  8  1  0
  8  9  1  0
  9 10  1  0
 10 11  1  0
 11 12  2  0
 12 13  1  0
 13 14  2  0
 14 15  1  0
 15 16  2  0
 16 17  1  0
 17 18  2  0
 18 19  1  0
 19 20  1  0
 12 21  1  0
 21 22  2  0
  6  2  2  0
 21  8  1  0
 19 11  1  0
 18 13  1  0
M  END
$$$$
