
     RDKit          3D

 19 21  0  0  0  0  0  0  0  0999 V2000
  -21.7380   34.4872  -22.2526 C   0  0  0  0  0  0  0  0  0  0  0  0
  -20.3023   34.6306  -22.3825 N   0  0  0  0  0  0  0  0  0  0  0  0
  -19.2591   34.0477  -21.5867 C   0  0  0  0  0  0  0  0  0  0  0  0
  -19.5255   33.2878  -20.6181 O   0  0  0  0  0  0  0  0  0  0  0  0
  -17.9849   34.4609  -22.0654 N   0  0  0  0  0  0  0  0  0  0  0  0
  -18.1512   35.1211  -23.3114 C   0  0  0  0  0  0  0  0  0  0  0  0
  -17.4616   36.4182  -23.4875 C   0  0  0  0  0  0  0  0  0  0  0  0
  -17.5774   37.3834  -22.3962 C   0  0  0  0  0  0  0  0  0  0  0  0
  -17.4577   37.2746  -21.0470 C   0  0  0  0  0  0  0  0  0  0  0  0
  -17.6625   38.4987  -20.5053 N   0  0  0  0  0  0  0  0  0  0  0  0
  -17.9099   39.3887  -21.4737 C   0  0  0  0  0  0  0  0  0  0  0  0
  -18.1828   40.7579  -21.4858 C   0  0  0  0  0  0  0  0  0  0  0  0
  -18.2414   41.6098  -19.9718 Cl  0  0  0  0  0  0  0  0  0  0  0  0
  -18.4055   41.4526  -22.6636 C   0  0  0  0  0  0  0  0  0  0  0  0
  -18.3582   40.7775  -23.8652 C   0  0  0  0  0  0  0  0  0  0  0  0
  -18.0889   39.4290  -23.8477 C   0  0  0  0  0  0  0  0  0  0  0  0
  -17.8655   38.7286  -22.6783 C   0  0  0  0  0  0  0  0  0  0  0  0
  -19.6312   35.4095  -23.3607 C   0  0  0  0  0  0  0  0  0  0  0  0
  -20.2036   36.2123  -24.1387 O   0  0  0  0  0  0  0  0  0  0  0  0
  1  2  1  0
  2  3  1  0
  3  4  2  0
  3  5  1  0
  5  6  1  0
  6  7  1  0
  7  8  1  0
  8  9  2  0
  9 10  1  0
 10 11  1  0
 11 12  2  0
 12 13  1  0
 12 14  1  0
 14 15  2  0
 15 16  1  0
 16 17  2  0
  6 18  1  0
 18 19  2  0
 18  2  1  0
 17  8  1  0
 17 11  1  0
M  END
$$$$
