
     RDKit          3D

 41 45  0  0  0  0  0  0  0  0999 V2000
  -24.6639   19.4355  -31.0254 C   0  0  0  0  0  0  0  0  0  0  0  0
  -25.2091   18.5573  -29.9379 C   0  0  0  0  0  0  0  0  0  0  0  0
  -25.8707   19.2519  -28.9502 O   0  0  0  0  0  0  0  0  0  0  0  0
  -25.8195   18.6079  -27.7371 C   0  0  1  0  0  0  0  0  0  0  0  0
  -24.4454   18.7010  -27.0871 C   0  0  0  0  0  0  0  0  0  0  0  0
  -24.6856   18.5841  -25.6962 N   0  0  0  0  0  0  0  0  0  0  0  0
  -23.9738   17.5801  -25.0049 C   0  0  1  0  0  0  0  0  0  0  0  0
  -22.4726   17.6745  -25.1181 C   0  0  0  0  0  0  0  0  0  0  0  0
  -21.8311   16.4865  -24.5154 C   0  0  0  0  0  0  0  0  0  0  0  0
  -22.4272   15.9302  -23.2884 C   0  0  1  0  0  0  0  0  0  0  0  0
  -22.5266   14.5246  -23.4728 O   0  0  0  0  0  0  0  0  0  0  0  0
  -21.4796   16.0629  -22.1208 C   0  0  0  0  0  0  0  0  0  0  0  0
  -20.1975   15.5439  -22.1515 C   0  0  0  0  0  0  0  0  0  0  0  0
  -19.3126   15.6485  -21.1056 C   0  0  0  0  0  0  0  0  0  0  0  0
  -19.7037   16.3001  -19.9594 C   0  0  0  0  0  0  0  0  0  0  0  0
  -20.9709   16.8251  -19.9014 C   0  0  0  0  0  0  0  0  0  0  0  0
  -21.8398   16.7075  -20.9624 C   0  0  0  0  0  0  0  0  0  0  0  0
  -21.1361   17.4323  -18.6519 O   0  0  0  0  0  0  0  0  0  0  0  0
  -20.1224   16.8906  -17.7932 C   0  0  0  0  0  0  0  0  0  0  0  0
  -19.0907   16.5876  -18.7392 O   0  0  0  0  0  0  0  0  0  0  0  0
  -23.7805   16.3943  -22.9064 C   0  0  0  0  0  0  0  0  0  0  0  0
  -24.2824   17.6421  -23.5233 C   0  0  0  0  0  0  0  0  0  0  0  0
  -26.0849   18.6595  -25.4310 C   0  0  0  0  0  0  0  0  0  0  0  0
  -26.6219   19.3574  -26.6615 C   0  0  2  0  0  0  0  0  0  0  0  0
  -28.0205   19.2042  -26.8515 N   0  0  0  0  0  0  0  0  0  0  0  0
  -28.8827   20.3219  -26.7397 C   0  0  0  0  0  0  0  0  0  0  0  0
  -28.5051   21.2661  -25.9833 O   0  0  0  0  0  0  0  0  0  0  0  0
  -30.1789   20.4233  -27.4587 C   0  0  0  0  0  0  0  0  0  0  0  0
  -31.0802   19.4049  -26.9666 N   0  0  0  0  0  0  0  0  0  0  0  0
  -30.6810   18.0580  -26.9410 C   0  0  0  0  0  0  0  0  0  0  0  0
  -29.8845   17.6497  -26.0542 O   0  0  0  0  0  0  0  0  0  0  0  0
  -31.1737   17.1056  -27.9316 C   0  0  0  0  0  0  0  0  0  0  0  0
  -31.9138   17.5498  -29.0254 C   0  0  0  0  0  0  0  0  0  0  0  0
  -32.3862   16.6659  -29.9690 C   0  0  0  0  0  0  0  0  0  0  0  0
  -32.1500   15.3109  -29.8749 C   0  0  0  0  0  0  0  0  0  0  0  0
  -31.4204   14.8454  -28.8025 C   0  0  0  0  0  0  0  0  0  0  0  0
  -31.1641   13.3885  -28.6978 C   0  0  0  0  0  0  0  0  0  0  0  0
  -31.2629   12.9691  -27.3695 F   0  0  0  0  0  0  0  0  0  0  0  0
  -32.0967   12.7190  -29.4384 F   0  0  0  0  0  0  0  0  0  0  0  0
  -29.8997   13.0972  -29.1920 F   0  0  0  0  0  0  0  0  0  0  0  0
  -30.9490   15.7597  -27.8542 C   0  0  0  0  0  0  0  0  0  0  0  0
  1  2  1  0
  2  3  1  0
  4  3  1  6
  4  5  1  0
  5  6  1  0
  7  6  1  6
  7  8  1  0
  8  9  1  0
  9 10  1  0
 10 11  1  6
 10 12  1  0
 12 13  2  0
 13 14  1  0
 14 15  2  0
 15 16  1  0
 16 17  2  0
 16 18  1  0
 18 19  1  0
 19 20  1  0
 10 21  1  0
 21 22  1  0
  6 23  1  0
 23 24  1  0
 24 25  1  6
 25 26  1  0
 26 27  2  0
 26 28  1  0
 28 29  1  0
 29 30  1  0
 30 31  2  0
 30 32  1  0
 32 33  2  0
 33 34  1  0
 34 35  2  0
 35 36  1  0
 36 37  1  0
 37 38  1  0
 37 39  1  0
 37 40  1  0
 36 41  2  0
 24  4  1  0
 41 32  1  0
 22  7  1  0
 17 12  1  0
 20 15  1  0
M  END
$$$$
