
     RDKit          3D

 29 31  0  0  0  0  0  0  0  0999 V2000
  -22.0731   45.7333  -21.4493 C   0  0  0  0  0  0  0  0  0  0  0  0
  -20.7932   46.3333  -22.0197 C   0  0  0  0  0  0  0  0  0  0  0  0
  -19.7532   45.2714  -22.1700 C   0  0  0  0  0  0  0  0  0  0  0  0
  -18.8536   44.9844  -21.1647 C   0  0  0  0  0  0  0  0  0  0  0  0
  -17.8966   43.9916  -21.3274 C   0  0  0  0  0  0  0  0  0  0  0  0
  -17.7995   43.2521  -22.4879 C   0  0  0  0  0  0  0  0  0  0  0  0
  -16.7617   42.1973  -22.6255 C   0  0  0  0  0  0  0  0  0  0  0  0
  -17.2117   40.8638  -22.1817 C   0  0  0  0  0  0  0  0  0  0  0  0
  -17.0614   40.4177  -20.8851 C   0  0  0  0  0  0  0  0  0  0  0  0
  -17.4887   39.1526  -20.4797 C   0  0  0  0  0  0  0  0  0  0  0  0
  -18.0847   38.2953  -21.3809 C   0  0  0  0  0  0  0  0  0  0  0  0
  -18.2394   38.7308  -22.6764 C   0  0  0  0  0  0  0  0  0  0  0  0
  -17.8116   39.9855  -23.0622 C   0  0  0  0  0  0  0  0  0  0  0  0
  -18.9009   37.6075  -23.3923 C   0  0  2  0  0  0  0  0  0  0  0  0
  -18.4558   36.5170  -22.6342 O   0  0  0  0  0  0  0  0  0  0  0  0
  -18.6416   36.8972  -21.2834 C   0  0  0  0  0  0  0  0  0  0  0  0
  -18.4685   37.4281  -24.6553 O   0  0  0  0  0  0  0  0  0  0  0  0
  -19.3253   37.1549  -25.6621 C   0  0  2  0  0  0  0  0  0  0  0  0
  -18.7099   37.4421  -27.0448 C   0  0  0  0  0  0  0  0  0  0  0  0
  -18.3541   38.7804  -27.1519 O   0  0  0  0  0  0  0  0  0  0  0  0
  -20.6909   37.7171  -25.6165 C   0  0  1  0  0  0  0  0  0  0  0  0
  -21.6173   36.7184  -25.9775 O   0  0  0  0  0  0  0  0  0  0  0  0
  -21.1260   38.3119  -24.3192 C   0  0  2  0  0  0  0  0  0  0  0  0
  -20.9966   39.7074  -24.2971 O   0  0  0  0  0  0  0  0  0  0  0  0
  -20.3889   37.6513  -23.2040 C   0  0  1  0  0  0  0  0  0  0  0  0
  -20.8735   36.3470  -23.0848 O   0  0  0  0  0  0  0  0  0  0  0  0
  -18.6997   43.5394  -23.4926 C   0  0  0  0  0  0  0  0  0  0  0  0
  -19.6503   44.5259  -23.3313 C   0  0  0  0  0  0  0  0  0  0  0  0
  -19.6085   40.3745  -23.0701 O   0  0  0  0  0  0  0  0  0  0  0  0
  1  2  1  0
  2  3  1  0
  3  4  2  0
  4  5  1  0
  5  6  2  0
  6  7  1  0
  7  8  1  0
  8  9  2  0
  9 10  1  0
 10 11  2  0
 11 12  1  0
 12 13  2  0
 12 14  1  0
 14 15  1  1
 15 16  1  0
 14 17  1  0
 17 18  1  0
 18 19  1  6
 19 20  1  0
 18 21  1  0
 21 22  1  1
 21 23  1  0
 23 24  1  6
 23 25  1  0
 25 26  1  6
  6 27  1  0
 27 28  2  0
 28  3  1  0
 13  8  1  0
 25 14  1  0
 16 11  1  0
M  END
$$$$
