
     RDKit          3D

 37 39  0  0  0  0  0  0  0  0999 V2000
  -13.5895   18.2362  -35.5539 C   0  0  0  0  0  0  0  0  0  0  0  0
  -14.3600   18.4607  -34.2518 C   0  0  0  0  0  0  0  0  0  0  0  0
  -15.4683   17.4176  -34.2176 C   0  0  1  0  0  0  0  0  0  0  0  0
  -14.9142   16.0512  -34.2503 C   0  0  0  0  0  0  0  0  0  0  0  0
  -15.1826   15.2077  -33.1150 N   0  0  0  0  0  0  0  0  0  0  0  0
  -14.1753   14.1652  -33.1185 C   0  0  0  0  0  0  0  0  0  0  0  0
  -13.1973   14.3058  -31.9427 C   0  0  0  0  0  0  0  0  0  0  0  0
  -14.0760   14.2469  -30.7414 C   0  0  0  0  0  0  0  0  0  0  0  0
  -13.8842   13.3867  -29.6821 C   0  0  0  0  0  0  0  0  0  0  0  0
  -14.7731   13.4064  -28.6010 C   0  0  0  0  0  0  0  0  0  0  0  0
  -14.5901   12.5457  -27.5300 O   0  0  0  0  0  0  0  0  0  0  0  0
  -13.4925   11.6551  -27.5566 C   0  0  0  0  0  0  0  0  0  0  0  0
  -15.8355   14.3100  -28.6374 C   0  0  0  0  0  0  0  0  0  0  0  0
  -16.6866   14.3014  -27.5607 O   0  0  0  0  0  0  0  0  0  0  0  0
  -17.8092   15.1129  -27.3775 C   0  0  0  0  0  0  0  0  0  0  0  0
  -16.0420   15.1784  -29.6902 C   0  0  0  0  0  0  0  0  0  0  0  0
  -15.1379   15.1286  -30.7450 C   0  0  0  0  0  0  0  0  0  0  0  0
  -15.2276   15.9968  -31.9355 C   0  0  2  0  0  0  0  0  0  0  0  0
  -16.4635   16.8403  -31.9587 C   0  0  0  0  0  0  0  0  0  0  0  0
  -16.5060   17.6831  -33.1730 C   0  0  2  0  0  0  0  0  0  0  0  0
  -17.8910   17.8031  -33.6883 C   0  0  0  0  0  0  0  0  0  0  0  0
  -18.5007   16.6866  -34.4041 C   0  0  1  0  0  0  0  0  0  0  0  0
  -18.6289   15.4350  -33.6695 N   0  0  0  0  0  0  0  0  0  0  0  0
  -19.0181   14.3861  -34.5830 C   0  0  0  0  0  0  0  0  0  0  0  0
  -19.8530   14.8025  -35.7385 C   0  0  0  0  0  0  0  0  0  0  0  0
  -20.5895   16.0573  -35.4498 C   0  0  0  0  0  0  0  0  0  0  0  0
  -21.9004   16.2907  -35.8251 C   0  0  0  0  0  0  0  0  0  0  0  0
  -22.5500   17.4909  -35.5346 C   0  0  0  0  0  0  0  0  0  0  0  0
  -23.8707   17.7098  -35.9196 O   0  0  0  0  0  0  0  0  0  0  0  0
  -24.5283   16.6782  -36.6121 C   0  0  0  0  0  0  0  0  0  0  0  0
  -21.8312   18.4517  -34.8503 C   0  0  0  0  0  0  0  0  0  0  0  0
  -22.4472   19.6430  -34.5515 O   0  0  0  0  0  0  0  0  0  0  0  0
  -21.8024   20.6967  -33.8537 C   0  0  0  0  0  0  0  0  0  0  0  0
  -20.5065   18.2366  -34.4617 C   0  0  0  0  0  0  0  0  0  0  0  0
  -19.9009   17.0408  -34.7663 C   0  0  0  0  0  0  0  0  0  0  0  0
  -17.8956   16.2905  -33.3219 Cl  0  0  0  0  0  0  0  0  0  0  0  0
  -17.8911   16.2886  -33.3183 Cl  0  0  0  0  0  0  0  0  0  0  0  0
  1  2  1  0
  3  2  1  1
  3  4  1  0
  4  5  1  0
  5  6  1  0
  6  7  1  0
  7  8  1  0
  8  9  2  0
  9 10  1  0
 10 11  1  0
 11 12  1  0
 10 13  2  0
 13 14  1  0
 14 15  1  0
 13 16  1  0
 16 17  2  0
 17 18  1  0
 18 19  1  1
 19 20  1  0
 20 21  1  6
 22 21  1  1
 22 23  1  0
 23 24  1  0
 24 25  1  0
 25 26  1  0
 26 27  2  0
 27 28  1  0
 28 29  1  0
 29 30  1  0
 28 31  2  0
 31 32  1  0
 32 33  1  0
 31 34  1  0
 34 35  2  0
 20  3  1  0
 35 22  1  0
 18  5  1  0
 35 26  1  0
 17  8  1  0
M  END
$$$$
