
     RDKit          3D

 23 25  0  0  0  0  0  0  0  0999 V2000
  -16.7068   44.7175  -18.8033 C   0  0  0  0  0  0  0  0  0  0  0  0
  -16.5491   44.5546  -20.1779 O   0  0  0  0  0  0  0  0  0  0  0  0
  -17.0606   43.5416  -20.9349 C   0  0  0  0  0  0  0  0  0  0  0  0
  -17.3113   43.7153  -22.2793 C   0  0  0  0  0  0  0  0  0  0  0  0
  -17.8310   42.6750  -23.0321 C   0  0  0  0  0  0  0  0  0  0  0  0
  -18.1095   41.4439  -22.4570 C   0  0  0  0  0  0  0  0  0  0  0  0
  -18.6295   40.3838  -23.1823 O   0  0  0  0  0  0  0  0  0  0  0  0
  -18.8792   40.5554  -24.5500 C   0  0  0  0  0  0  0  0  0  0  0  0
  -17.8587   41.2619  -21.0999 C   0  0  0  0  0  0  0  0  0  0  0  0
  -18.2125   39.7098  -20.3868 S   0  0  0  0  0  6  0  0  0  0  0  0
  -16.9823   38.8931  -20.1486 O   0  0  0  0  0  0  0  0  0  0  0  0
  -18.8815   39.9176  -19.0365 O   0  0  0  0  0  0  0  0  0  0  0  0
  -19.2445   38.8180  -21.4418 N   0  0  0  0  0  0  0  0  0  0  0  0
  -20.5839   38.9022  -21.4478 N   0  0  0  0  0  0  0  0  0  0  0  0
  -21.0758   38.1013  -22.3637 N   0  0  0  0  0  0  0  0  0  0  0  0
  -20.0678   37.4723  -22.9806 C   0  0  0  0  0  0  0  0  0  0  0  0
  -20.0798   36.5477  -23.9974 C   0  0  0  0  0  0  0  0  0  0  0  0
  -18.8714   36.0573  -24.4475 C   0  0  0  0  0  0  0  0  0  0  0  0
  -18.8625   34.8805  -25.7398 Cl  0  0  0  0  0  0  0  0  0  0  0  0
  -17.7012   36.5137  -23.8602 C   0  0  0  0  0  0  0  0  0  0  0  0
  -17.7061   37.4489  -22.8331 C   0  0  0  0  0  0  0  0  0  0  0  0
  -18.9117   37.9310  -22.3917 C   0  0  0  0  0  0  0  0  0  0  0  0
  -17.3408   42.3095  -20.3655 C   0  0  0  0  0  0  0  0  0  0  0  0
  1  2  1  0
  2  3  1  0
  3  4  2  0
  4  5  1  0
  5  6  2  0
  6  7  1  0
  7  8  1  0
  6  9  1  0
  9 10  1  0
 10 11  2  0
 10 12  2  0
 10 13  1  0
 13 14  1  0
 14 15  2  0
 15 16  1  0
 16 17  2  0
 17 18  1  0
 18 19  1  0
 18 20  2  0
 20 21  1  0
 21 22  2  0
  9 23  2  0
 23  3  1  0
 22 13  1  0
 22 16  1  0
M  END
$$$$
