
     RDKit          3D

 30 33  0  0  0  0  0  0  0  0999 V2000
  -17.9279   47.5965  -19.5469 C   0  0  0  0  0  0  0  0  0  0  0  0
  -17.5154   46.5046  -20.4390 N   0  0  0  0  0  0  0  0  0  0  0  0
  -18.3801   45.4557  -20.7939 C   0  0  0  0  0  0  0  0  0  0  0  0
  -19.5885   45.5273  -20.4539 O   0  0  0  0  0  0  0  0  0  0  0  0
  -17.9419   44.2558  -21.5554 C   0  0  1  0  0  0  0  0  0  0  0  0
  -18.0960   43.0959  -20.7984 O   0  0  0  0  0  0  0  0  0  0  0  0
  -17.8710   42.1034  -21.7407 C   0  0  1  0  0  0  0  0  0  0  0  0
  -18.0764   40.7899  -21.1806 N   0  0  0  0  0  0  0  0  0  0  0  0
  -18.7348   40.5106  -20.0434 C   0  0  0  0  0  0  0  0  0  0  0  0
  -18.7215   39.1838  -19.8434 N   0  0  0  0  0  0  0  0  0  0  0  0
  -18.0556   38.5793  -20.8451 C   0  0  0  0  0  0  0  0  0  0  0  0
  -17.7387   37.2718  -21.1511 C   0  0  0  0  0  0  0  0  0  0  0  0
  -18.1435   36.2180  -20.3043 N   0  0  0  0  0  0  0  0  0  0  0  0
  -17.7019   34.8432  -20.5124 C   0  0  0  0  0  0  0  0  0  0  0  0
  -18.5565   34.2003  -21.5310 C   0  0  0  0  0  0  0  0  0  0  0  0
  -18.0110   33.7730  -22.7071 C   0  0  0  0  0  0  0  0  0  0  0  0
  -18.8172   33.1779  -23.6433 C   0  0  0  0  0  0  0  0  0  0  0  0
  -20.1855   33.0094  -23.3976 C   0  0  0  0  0  0  0  0  0  0  0  0
  -20.7040   33.4532  -22.1976 C   0  0  0  0  0  0  0  0  0  0  0  0
  -22.7731   33.2082  -21.8048 I   0  0  0  0  0  0  0  0  0  0  0  0
  -19.9142   34.0529  -21.2439 C   0  0  0  0  0  0  0  0  0  0  0  0
  -17.0328   37.0679  -22.2862 N   0  0  0  0  0  0  0  0  0  0  0  0
  -16.6485   38.0737  -23.0911 C   0  0  0  0  0  0  0  0  0  0  0  0
  -15.7268   37.6720  -24.5505 Cl  0  0  0  0  0  0  0  0  0  0  0  0
  -16.9512   39.3570  -22.8045 N   0  0  0  0  0  0  0  0  0  0  0  0
  -17.6544   39.6125  -21.6825 C   0  0  0  0  0  0  0  0  0  0  0  0
  -18.8401   42.4537  -22.8253 C   0  0  2  0  0  0  0  0  0  0  0  0
  -18.3697   42.1437  -24.0940 O   0  0  0  0  0  0  0  0  0  0  0  0
  -18.8735   43.9826  -22.7241 C   0  0  2  0  0  0  0  0  0  0  0  0
  -18.3198   44.5764  -23.8544 O   0  0  0  0  0  0  0  0  0  0  0  0
  1  2  1  0
  2  3  1  0
  3  4  2  0
  5  3  1  1
  5  6  1  0
  6  7  1  0
  7  8  1  1
  8  9  1  0
  9 10  2  0
 10 11  1  0
 11 12  2  0
 12 13  1  0
 13 14  1  0
 14 15  1  0
 15 16  2  0
 16 17  1  0
 17 18  2  0
 18 19  1  0
 19 20  1  0
 19 21  2  0
 12 22  1  0
 22 23  2  0
 23 24  1  0
 23 25  1  0
 25 26  2  0
  7 27  1  0
 27 28  1  6
 27 29  1  0
 29 30  1  6
 29  5  1  0
 26  8  1  0
 26 11  1  0
 21 15  1  0
M  END
$$$$
