
     RDKit          3D

 13 14  0  0  0  0  0  0  0  0999 V2000
  -19.5005   39.6936  -23.6594 O   0  0  0  0  0  0  0  0  0  0  0  0
  -19.2922   38.3571  -23.2980 C   0  0  0  0  0  0  0  0  0  0  0  0
  -19.7614   37.3310  -24.1215 C   0  0  0  0  0  0  0  0  0  0  0  0
  -19.5670   36.0118  -23.7844 C   0  0  0  0  0  0  0  0  0  0  0  0
  -18.8976   35.7327  -22.6136 C   0  0  0  0  0  0  0  0  0  0  0  0
  -18.6415   34.0593  -22.1693 Cl  0  0  0  0  0  0  0  0  0  0  0  0
  -18.4420   36.7562  -21.8138 C   0  0  0  0  0  0  0  0  0  0  0  0
  -18.6208   38.1096  -22.1236 C   0  0  0  0  0  0  0  0  0  0  0  0
  -18.1125   39.1441  -21.2316 C   0  0  0  0  0  0  0  0  0  0  0  0
  -17.3230   39.0889  -20.1352 C   0  0  0  0  0  0  0  0  0  0  0  0
  -17.1510   40.3588  -19.6734 N   0  0  0  0  0  0  0  0  0  0  0  0
  -17.8150   41.1871  -20.4596 N   0  0  0  0  0  0  0  0  0  0  0  0
  -18.3908   40.4653  -21.3917 N   0  0  0  0  0  0  0  0  0  0  0  0
  1  2  1  0
  2  3  2  0
  3  4  1  0
  4  5  2  0
  5  6  1  0
  5  7  1  0
  7  8  2  0
  8  9  1  0
  9 10  2  0
 10 11  1  0
 11 12  1  0
 12 13  2  0
  8  2  1  0
 13  9  1  0
M  END
$$$$
