
     RDKit          3D

 25 28  0  0  0  0  0  0  0  0999 V2000
  -18.1801   44.6137  -24.9759 C   0  0  0  0  0  0  0  0  0  0  0  0
  -18.4949   44.0534  -23.6780 N   0  0  0  0  0  0  0  0  0  0  0  0
  -17.3012   43.7716  -22.9063 C   0  0  0  0  0  0  0  0  0  0  0  0
  -16.8058   42.4562  -23.4603 C   0  0  0  0  0  0  0  0  0  0  0  0
  -18.0637   41.7283  -23.7979 C   0  0  1  0  0  0  0  0  0  0  0  0
  -17.9356   41.0962  -25.1747 C   0  0  0  0  0  0  0  0  0  0  0  0
  -18.4440   40.7026  -22.7904 C   0  0  0  0  0  0  0  0  0  0  0  0
  -17.9507   39.4268  -22.5163 C   0  0  0  0  0  0  0  0  0  0  0  0
  -18.4788   38.6497  -21.5103 C   0  0  0  0  0  0  0  0  0  0  0  0
  -18.0054   37.3805  -21.2199 O   0  0  0  0  0  0  0  0  0  0  0  0
  -18.5775   36.2642  -21.8324 C   0  0  0  0  0  0  0  0  0  0  0  0
  -19.6699   36.4486  -22.3757 O   0  0  0  0  0  0  0  0  0  0  0  0
  -17.9018   35.0213  -21.8015 N   0  0  0  0  0  0  0  0  0  0  0  0
  -18.5184   33.7825  -21.9246 C   0  0  0  0  0  0  0  0  0  0  0  0
  -19.8020   33.5848  -22.3392 C   0  0  0  0  0  0  0  0  0  0  0  0
  -20.2821   32.2723  -22.4118 C   0  0  0  0  0  0  0  0  0  0  0  0
  -19.5046   31.1864  -22.0804 C   0  0  0  0  0  0  0  0  0  0  0  0
  -18.1991   31.3807  -21.6582 C   0  0  0  0  0  0  0  0  0  0  0  0
  -17.7514   32.6601  -21.5942 C   0  0  0  0  0  0  0  0  0  0  0  0
  -19.5190   39.1790  -20.7780 C   0  0  0  0  0  0  0  0  0  0  0  0
  -20.0174   40.4499  -21.0441 C   0  0  0  0  0  0  0  0  0  0  0  0
  -19.4824   41.2343  -22.0615 C   0  0  0  0  0  0  0  0  0  0  0  0
  -19.8234   42.5407  -22.5091 N   0  0  0  0  0  0  0  0  0  0  0  0
  -20.6680   43.5319  -21.8921 C   0  0  0  0  0  0  0  0  0  0  0  0
  -19.1425   42.7604  -23.7897 C   0  0  1  0  0  0  0  0  0  0  0  0
  1  2  1  0
  2  3  1  0
  3  4  1  0
  4  5  1  0
  5  6  1  6
  5  7  1  0
  7  8  2  0
  8  9  1  0
  9 10  1  0
 10 11  1  0
 11 12  2  0
 11 13  1  0
 13 14  1  0
 14 15  2  0
 15 16  1  0
 16 17  2  0
 17 18  1  0
 18 19  2  0
  9 20  2  0
 20 21  1  0
 21 22  2  0
 22 23  1  0
 23 24  1  0
 25 23  1  1
 25  2  1  0
 25  5  1  0
 22  7  1  0
 19 14  1  0
M  END
$$$$
