
     RDKit          3D

 30 34  0  0  0  0  0  0  0  0999 V2000
  -15.5203   34.8137  -21.6034 C   0  0  0  0  0  0  0  0  0  0  0  0
  -16.6716   35.7571  -21.7736 C   0  0  0  0  0  0  0  0  0  0  0  0
  -17.2797   35.9363  -22.9976 C   0  0  0  0  0  0  0  0  0  0  0  0
  -18.3460   36.8100  -23.1557 C   0  0  0  0  0  0  0  0  0  0  0  0
  -18.8484   37.5405  -22.0969 C   0  0  0  0  0  0  0  0  0  0  0  0
  -19.9901   38.4786  -22.2561 C   0  0  0  0  0  0  0  0  0  0  0  0
  -19.5663   39.8717  -22.1029 N   0  0  0  0  0  0  0  0  0  0  0  0
  -19.4867   40.5464  -20.9721 N   0  0  0  0  0  0  0  0  0  0  0  0
  -19.0601   41.8062  -21.1964 C   0  0  0  0  0  0  0  0  0  0  0  0
  -18.8550   41.9414  -22.5592 C   0  0  0  0  0  0  0  0  0  0  0  0
  -18.4348   42.9660  -23.3780 C   0  0  0  0  0  0  0  0  0  0  0  0
  -18.0874   44.2321  -22.8426 N   0  0  0  0  0  0  0  0  0  0  0  0
  -17.3191   45.2359  -23.5613 C   0  0  0  0  0  0  0  0  0  0  0  0
  -17.5841   46.6134  -22.9801 C   0  0  0  0  0  0  0  0  0  0  0  0
  -17.3042   46.6194  -21.5746 N   0  0  0  0  0  0  0  0  0  0  0  0
  -16.8896   47.7821  -20.8992 C   0  0  0  0  0  0  0  0  0  0  0  0
  -16.8979   47.8302  -19.5247 C   0  0  0  0  0  0  0  0  0  0  0  0
  -16.5116   48.9520  -18.8225 C   0  0  0  0  0  0  0  0  0  0  0  0
  -16.1052   50.0565  -19.5405 C   0  0  0  0  0  0  0  0  0  0  0  0
  -16.0896   50.0283  -20.9172 C   0  0  0  0  0  0  0  0  0  0  0  0
  -16.4837   48.8849  -21.5983 C   0  0  0  0  0  0  0  0  0  0  0  0
  -16.4291   48.9239  -23.0853 C   0  0  0  0  0  0  0  0  0  0  0  0
  -17.4515   45.3855  -20.8358 C   0  0  0  0  0  0  0  0  0  0  0  0
  -18.5240   44.5577  -21.4973 C   0  0  0  0  0  0  0  0  0  0  0  0
  -18.3633   42.7037  -24.7037 N   0  0  0  0  0  0  0  0  0  0  0  0
  -18.6845   41.5032  -25.2091 C   0  0  0  0  0  0  0  0  0  0  0  0
  -19.0953   40.4958  -24.4211 N   0  0  0  0  0  0  0  0  0  0  0  0
  -19.1810   40.7142  -23.0948 C   0  0  0  0  0  0  0  0  0  0  0  0
  -18.2302   37.3524  -20.8735 C   0  0  0  0  0  0  0  0  0  0  0  0
  -17.1697   36.4843  -20.7138 C   0  0  0  0  0  0  0  0  0  0  0  0
  1  2  1  0
  2  3  2  0
  3  4  1  0
  4  5  2  0
  5  6  1  0
  6  7  1  0
  7  8  1  0
  8  9  2  0
  9 10  1  0
 10 11  2  0
 11 12  1  0
 12 13  1  0
 13 14  1  0
 14 15  1  0
 15 16  1  0
 16 17  2  0
 17 18  1  0
 18 19  2  0
 19 20  1  0
 20 21  2  0
 21 22  1  0
 15 23  1  0
 23 24  1  0
 11 25  1  0
 25 26  2  0
 26 27  1  0
 27 28  2  0
  5 29  1  0
 29 30  2  0
 30  2  1  0
 28  7  1  0
 28 10  1  0
 24 12  1  0
 21 16  1  0
M  END
$$$$
