
     RDKit          3D

 18 19  0  0  0  0  0  0  0  0999 V2000
  -20.2373   39.3607  -21.4763 C   0  0  0  0  0  0  0  0  0  0  0  0
  -18.7276   39.1204  -21.5227 C   0  0  0  0  0  0  0  0  0  0  0  0
  -17.9299   39.5177  -20.5270 C   0  0  0  0  0  0  0  0  0  0  0  0
  -16.5475   39.2342  -20.6927 C   0  0  0  0  0  0  0  0  0  0  0  0
  -16.5024   38.4317  -22.2415 S   0  0  0  0  0  0  0  0  0  0  0  0
  -18.2091   38.4885  -22.6075 C   0  0  0  0  0  0  0  0  0  0  0  0
  -18.8233   37.9634  -23.8000 C   0  0  0  0  0  0  0  0  0  0  0  0
  -18.1091   37.3480  -24.6308 O   0  0  0  0  0  0  0  0  0  0  0  0
  -20.1559   38.1134  -24.0555 O   0  0  0  0  0  0  0  0  0  0  0  0
  -20.7398   37.7190  -25.2795 C   0  0  0  0  0  0  0  0  0  0  0  0
  -20.9389   38.9151  -26.1377 C   0  0  0  0  0  0  0  0  0  0  0  0
  -20.7065   40.0706  -25.6814 O   0  0  0  0  0  0  0  0  0  0  0  0
  -21.3938   38.8005  -27.4898 N   0  0  0  0  0  0  0  0  0  0  0  0
  -21.6469   37.5011  -28.0778 C   0  0  0  0  0  0  0  0  0  0  0  0
  -22.7688   37.5309  -29.0859 C   0  0  0  0  0  0  0  0  0  0  0  0
  -23.3780   38.7895  -29.1317 O   0  0  0  0  0  0  0  0  0  0  0  0
  -22.4293   39.7679  -29.4667 C   0  0  0  0  0  0  0  0  0  0  0  0
  -21.5917   40.0289  -28.2478 C   0  0  0  0  0  0  0  0  0  0  0  0
  1  2  1  0
  2  3  1  0
  3  4  2  0
  4  5  1  0
  5  6  1  0
  6  7  1  0
  7  8  2  0
  7  9  1  0
  9 10  1  0
 10 11  1  0
 11 12  2  0
 11 13  1  0
 13 14  1  0
 14 15  1  0
 15 16  1  0
 16 17  1  0
 17 18  1  0
  6  2  2  0
 18 13  1  0
M  END
$$$$
