
     RDKit          3D

 16 16  0  0  0  0  0  0  0  0999 V2000
  -23.9634   12.1468  -34.4657 C   0  0  0  0  0  0  0  0  0  0  0  0
  -23.6438   13.5669  -34.1228 C   0  0  0  0  0  0  0  0  0  0  0  0
  -24.6454   14.3583  -33.6247 C   0  0  0  0  0  0  0  0  0  0  0  0
  -24.3744   15.6677  -33.3036 C   0  0  0  0  0  0  0  0  0  0  0  0
  -23.0923   16.1319  -33.4991 C   0  0  0  0  0  0  0  0  0  0  0  0
  -22.0823   15.3376  -34.0001 C   0  0  0  0  0  0  0  0  0  0  0  0
  -20.7464   15.8289  -34.2008 C   0  0  0  0  0  0  0  0  0  0  0  0
  -19.6043   16.2279  -34.3755 C   0  0  0  0  0  0  0  0  0  0  0  0
  -18.2663   16.6995  -34.6047 C   0  0  0  0  0  0  0  0  0  0  0  0
  -17.8625   17.9850  -34.2907 C   0  0  0  0  0  0  0  0  0  0  0  0
  -16.5916   18.4528  -34.5006 C   0  0  0  0  0  0  0  0  0  0  0  0
  -15.6445   17.6272  -35.0502 C   0  0  0  0  0  0  0  0  0  0  0  0
  -15.9989   16.3445  -35.3775 C   0  0  0  0  0  0  0  0  0  0  0  0
  -17.2726   15.8979  -35.1597 C   0  0  0  0  0  0  0  0  0  0  0  0
  -22.3901   14.0701  -34.2992 N   0  0  0  0  0  0  0  0  0  0  0  0
  -20.4002   16.2323  -34.5837 Cl  0  0  0  0  0  0  0  0  0  0  0  0
  1  2  1  0
  2  3  2  0
  3  4  1  0
  4  5  2  0
  5  6  1  0
  6  7  1  0
  7  8  3  0
  8  9  1  0
  9 10  2  0
 10 11  1  0
 11 12  2  0
 12 13  1  0
 13 14  2  0
  6 15  2  0
 15  2  1  0
 14  9  1  0
M  END
$$$$
