
     RDKit          3D

 15 16  0  0  0  0  0  0  0  0999 V2000
  -16.9226   15.8320  -32.4417 S   0  0  0  0  0  0  0  0  0  0  0  0
  -17.7051   14.7154  -31.5722 C   0  0  0  0  0  0  0  0  0  0  0  0
  -19.0853   14.5277  -31.6962 N   0  0  0  0  0  0  0  0  0  0  0  0
  -19.9117   15.2586  -32.5542 C   0  0  0  0  0  0  0  0  0  0  0  0
  -21.0310   15.8545  -31.9426 C   0  0  0  0  0  0  0  0  0  0  0  0
  -21.9143   16.5537  -32.7196 C   0  0  0  0  0  0  0  0  0  0  0  0
  -21.7237   16.6833  -34.0949 C   0  0  0  0  0  0  0  0  0  0  0  0
  -20.6271   16.0963  -34.6808 C   0  0  0  0  0  0  0  0  0  0  0  0
  -19.7101   15.3744  -33.8984 C   0  0  0  0  0  0  0  0  0  0  0  0
  -16.9280   13.9592  -30.6298 N   0  0  0  0  0  0  0  0  0  0  0  0
  -15.5302   13.8272  -30.6313 C   0  0  0  0  0  0  0  0  0  0  0  0
  -14.6064   13.2121  -30.2616 N   0  0  0  0  0  0  0  0  0  0  0  0
  -13.3300   13.3989  -30.4645 C   0  0  0  0  0  0  0  0  0  0  0  0
  -12.9662   14.4485  -31.2065 C   0  0  0  0  0  0  0  0  0  0  0  0
  -14.6133   15.1712  -31.6080 S   0  0  0  0  0  0  0  0  0  0  0  0
  1  2  2  0
  2  3  1  0
  3  4  1  0
  4  5  2  0
  5  6  1  0
  6  7  2  0
  7  8  1  0
  8  9  2  0
  2 10  1  0
 10 11  1  0
 11 12  2  0
 12 13  1  0
 13 14  2  0
 14 15  1  0
  9  4  1  0
 15 11  1  0
M  END
$$$$
