
     RDKit          3D

 38 42  0  0  0  0  0  0  0  0999 V2000
  -21.7498   44.4569  -26.3175 C   0  0  0  0  0  0  0  0  0  0  0  0
  -20.5165   44.0875  -25.6862 N   0  0  0  0  0  0  0  0  0  0  0  0
  -19.3395   44.3570  -26.4909 C   0  0  0  0  0  0  0  0  0  0  0  0
  -18.0813   44.1344  -25.6595 C   0  0  0  0  0  0  0  0  0  0  0  0
  -18.4172   43.3890  -24.4795 N   0  0  0  0  0  0  0  0  0  0  0  0
  -18.0589   43.7143  -23.1663 C   0  0  0  0  0  0  0  0  0  0  0  0
  -17.7232   45.0040  -22.8289 C   0  0  0  0  0  0  0  0  0  0  0  0
  -17.3817   45.3358  -21.5258 C   0  0  0  0  0  0  0  0  0  0  0  0
  -17.3672   44.3925  -20.5431 C   0  0  0  0  0  0  0  0  0  0  0  0
  -17.0295   44.6794  -19.2160 O   0  0  0  0  0  0  0  0  0  0  0  0
  -17.8669   45.4602  -18.3947 C   0  0  0  0  0  0  0  0  0  0  0  0
  -19.1874   45.1805  -18.6975 F   0  0  0  0  0  0  0  0  0  0  0  0
  -17.6627   45.1172  -17.0924 F   0  0  0  0  0  0  0  0  0  0  0  0
  -17.6914   46.8070  -18.5123 F   0  0  0  0  0  0  0  0  0  0  0  0
  -17.6994   43.0789  -20.8511 C   0  0  0  0  0  0  0  0  0  0  0  0
  -17.7320   42.1191  -19.8331 N   0  0  0  0  0  0  0  0  0  0  0  0
  -17.8455   40.7273  -20.0676 C   0  0  0  0  0  0  0  0  0  0  0  0
  -17.6013   39.9675  -18.9489 N   0  0  0  0  0  0  0  0  0  0  0  0
  -17.6784   38.6488  -18.9328 C   0  0  0  0  0  0  0  0  0  0  0  0
  -18.0301   38.0086  -20.1336 C   0  0  0  0  0  0  0  0  0  0  0  0
  -18.2694   38.7724  -21.2303 C   0  0  0  0  0  0  0  0  0  0  0  0
  -18.1812   40.1442  -21.2236 N   0  0  0  0  0  0  0  0  0  0  0  0
  -18.7854   38.0992  -22.4228 C   0  0  0  0  0  0  0  0  0  0  0  0
  -19.0395   36.7412  -22.4231 C   0  0  0  0  0  0  0  0  0  0  0  0
  -19.4367   36.4120  -23.7336 C   0  0  0  0  0  0  0  0  0  0  0  0
  -19.8211   35.0775  -24.1796 C   0  0  0  0  0  0  0  0  0  0  0  0
  -19.7434   33.9837  -23.2778 N   0  0  0  0  0  0  0  0  0  0  0  0
  -20.2181   34.8760  -25.3354 O   0  0  0  0  0  0  0  0  0  0  0  0
  -19.3966   37.5560  -24.4101 N   0  0  0  0  0  0  0  0  0  0  0  0
  -19.0150   38.5569  -23.6519 N   0  0  0  0  0  0  0  0  0  0  0  0
  -18.8368   39.8983  -24.1305 C   0  0  0  0  0  0  0  0  0  0  0  0
  -20.2128   40.3267  -24.6792 C   0  0  0  0  0  0  0  0  0  0  0  0
  -21.1892   40.2803  -23.6890 O   0  0  0  0  0  0  0  0  0  0  0  0
  -18.9404   35.9663  -21.1866 C   0  0  0  0  0  0  0  0  0  0  0  0
  -18.0352   36.5419  -20.1855 C   0  0  0  0  0  0  0  0  0  0  0  0
  -18.0386   42.7518  -22.1466 C   0  0  0  0  0  0  0  0  0  0  0  0
  -19.2579   42.2026  -24.6951 C   0  0  0  0  0  0  0  0  0  0  0  0
  -20.5825   42.7419  -25.2199 C   0  0  0  0  0  0  0  0  0  0  0  0
  1  2  1  0
  2  3  1  0
  3  4  1  0
  4  5  1  0
  5  6  1  0
  6  7  2  0
  7  8  1  0
  8  9  2  0
  9 10  1  0
 10 11  1  0
 11 12  1  0
 11 13  1  0
 11 14  1  0
  9 15  1  0
 15 16  1  0
 16 17  1  0
 17 18  2  0
 18 19  1  0
 19 20  2  0
 20 21  1  0
 21 22  2  0
 21 23  1  0
 23 24  2  0
 24 25  1  0
 25 26  1  0
 26 27  1  0
 26 28  2  0
 25 29  2  0
 29 30  1  0
 30 31  1  0
 31 32  1  0
 32 33  1  0
 24 34  1  0
 34 35  1  0
 15 36  2  0
  5 37  1  0
 37 38  1  0
 38  2  1  0
 36  6  1  0
 22 17  1  0
 30 23  1  0
 35 20  1  0
M  END
$$$$
