
     RDKit          3D

 35 37  0  0  0  0  0  0  0  0999 V2000
  -12.7050   43.8032  -17.5288 O   0  0  0  0  0  0  0  0  0  0  0  0
  -12.6025   43.5689  -18.7469 N   0  0  0  0  0  4  0  0  0  0  0  0
  -11.3724   43.2550  -19.2258 O   0  0  0  0  0  1  0  0  0  0  0  0
  -13.7681   43.6401  -19.5760 C   0  0  0  0  0  0  0  0  0  0  0  0
  -13.6594   43.8219  -20.9358 C   0  0  0  0  0  0  0  0  0  0  0  0
  -14.7621   43.8951  -21.7651 C   0  0  0  0  0  0  0  0  0  0  0  0
  -16.0264   43.7836  -21.2256 C   0  0  0  0  0  0  0  0  0  0  0  0
  -17.1610   43.8711  -22.1733 C   0  0  0  0  0  0  0  0  0  0  0  0
  -18.1357   42.8591  -22.0412 N   0  0  0  0  0  0  0  0  0  0  0  0
  -19.4916   43.2922  -22.1470 C   0  0  0  0  0  0  0  0  0  0  0  0
  -19.8816   43.6577  -23.5690 C   0  0  0  0  0  0  0  0  0  0  0  0
  -19.9206   42.5844  -24.4177 O   0  0  0  0  0  0  0  0  0  0  0  0
  -18.8470   42.5909  -25.3270 C   0  0  0  0  0  0  0  0  0  0  0  0
  -19.1156   41.5377  -26.4082 C   0  0  0  0  0  0  0  0  0  0  0  0
  -19.9712   40.6098  -25.8676 O   0  0  0  0  0  0  0  0  0  0  0  0
  -19.9070   39.3609  -26.4616 C   0  0  0  0  0  0  0  0  0  0  0  0
  -19.0489   38.3880  -25.7345 C   0  0  0  0  0  0  0  0  0  0  0  0
  -19.0039   38.5642  -24.3233 N   0  0  0  0  0  0  0  0  0  0  0  0
  -18.1053   37.6370  -23.6850 C   0  0  0  0  0  0  0  0  0  0  0  0
  -18.7721   36.5959  -22.8866 C   0  0  0  0  0  0  0  0  0  0  0  0
  -18.7278   36.5281  -21.5110 C   0  0  0  0  0  0  0  0  0  0  0  0
  -19.3766   35.5310  -20.8004 C   0  0  0  0  0  0  0  0  0  0  0  0
  -20.0981   34.5603  -21.4610 C   0  0  0  0  0  0  0  0  0  0  0  0
  -20.7713   33.5270  -20.7444 N   0  0  0  0  0  4  0  0  0  0  0  0
  -20.7001   33.4920  -19.5148 O   0  0  0  0  0  0  0  0  0  0  0  0
  -21.4960   32.5735  -21.4105 O   0  0  0  0  0  1  0  0  0  0  0  0
  -20.1303   34.6447  -22.8346 C   0  0  0  0  0  0  0  0  0  0  0  0
  -19.5014   35.6154  -23.5652 C   0  0  0  0  0  0  0  0  0  0  0  0
  -20.2544   38.5877  -23.6495 C   0  0  0  0  0  0  0  0  0  0  0  0
  -20.0342   39.2256  -22.2709 C   0  0  0  0  0  0  0  0  0  0  0  0
  -19.2823   40.3712  -22.3441 O   0  0  0  0  0  0  0  0  0  0  0  0
  -18.2293   40.4581  -21.4795 C   0  0  0  0  0  0  0  0  0  0  0  0
  -17.8847   41.8668  -21.0538 C   0  0  0  0  0  0  0  0  0  0  0  0
  -16.1542   43.6042  -19.8883 C   0  0  0  0  0  0  0  0  0  0  0  0
  -15.0465   43.5335  -19.0766 C   0  0  0  0  0  0  0  0  0  0  0  0
  1  2  2  0
  2  3  1  0
  2  4  1  0
  4  5  2  0
  5  6  1  0
  6  7  2  0
  7  8  1  0
  8  9  1  0
  9 10  1  0
 10 11  1  0
 11 12  1  0
 12 13  1  0
 13 14  1  0
 14 15  1  0
 15 16  1  0
 16 17  1  0
 17 18  1  0
 18 19  1  0
 19 20  1  0
 20 21  2  0
 21 22  1  0
 22 23  2  0
 23 24  1  0
 24 25  2  0
 24 26  1  0
 23 27  1  0
 27 28  2  0
 18 29  1  0
 29 30  1  0
 30 31  1  0
 31 32  1  0
 32 33  1  0
  7 34  1  0
 34 35  2  0
 35  4  1  0
 33  9  1  0
 28 20  1  0
M  CHG  4   2   1   3  -1  24   1  26  -1
M  END
$$$$
