
     RDKit          3D

 25 28  0  0  0  0  0  0  0  0999 V2000
  -26.8416   14.9527  -31.2230 C   0  0  0  0  0  0  0  0  0  0  0  0
  -26.2596   15.6679  -32.3938 C   0  0  0  0  0  0  0  0  0  0  0  0
  -25.4359   14.8588  -33.2762 N   0  0  0  0  0  0  0  0  0  0  0  0
  -26.0222   13.8554  -34.1116 C   0  0  0  0  0  0  0  0  0  0  0  0
  -25.1774   13.6648  -35.3502 C   0  0  0  0  0  0  0  0  0  0  0  0
  -24.0241   15.0562  -33.2550 C   0  0  0  0  0  0  0  0  0  0  0  0
  -23.2607   14.2913  -32.4025 C   0  0  0  0  0  0  0  0  0  0  0  0
  -21.8771   14.5320  -32.3959 C   0  0  0  0  0  0  0  0  0  0  0  0
  -21.2885   15.4768  -33.1893 C   0  0  0  0  0  0  0  0  0  0  0  0
  -19.9381   15.6939  -33.1664 C   0  0  0  0  0  0  0  0  0  0  0  0
  -19.3857   16.6638  -33.9893 C   0  0  0  0  0  0  0  0  0  0  0  0
  -17.9231   16.8468  -33.9241 C   0  0  0  0  0  0  0  0  0  0  0  0
  -17.0103   15.8561  -33.7916 N   0  0  0  0  0  0  0  0  0  0  0  0
  -15.7646   16.3421  -33.7660 C   0  0  0  0  0  0  0  0  0  0  0  0
  -14.5324   15.7253  -33.6472 C   0  0  0  0  0  0  0  0  0  0  0  0
  -13.4202   16.5238  -33.6559 C   0  0  0  0  0  0  0  0  0  0  0  0
  -13.5021   17.8987  -33.7777 C   0  0  0  0  0  0  0  0  0  0  0  0
  -14.7375   18.4898  -33.8947 C   0  0  0  0  0  0  0  0  0  0  0  0
  -15.8792   17.7188  -33.8890 C   0  0  0  0  0  0  0  0  0  0  0  0
  -17.2099   17.9761  -33.9824 N   0  0  0  0  0  0  0  0  0  0  0  0
  -20.1961   17.3835  -34.8055 C   0  0  0  0  0  0  0  0  0  0  0  0
  -19.6883   18.2666  -35.5536 O   0  0  0  0  0  0  0  0  0  0  0  0
  -21.5018   17.1594  -34.8145 O   0  0  0  0  0  0  0  0  0  0  0  0
  -22.0546   16.2415  -34.0415 C   0  0  0  0  0  0  0  0  0  0  0  0
  -23.4157   16.0159  -34.0589 C   0  0  0  0  0  0  0  0  0  0  0  0
  1  2  1  0
  2  3  1  0
  3  4  1  0
  4  5  1  0
  3  6  1  0
  6  7  2  0
  7  8  1  0
  8  9  2  0
  9 10  1  0
 10 11  2  0
 11 12  1  0
 12 13  2  0
 13 14  1  0
 14 15  2  0
 15 16  1  0
 16 17  2  0
 17 18  1  0
 18 19  2  0
 19 20  1  0
 11 21  1  0
 21 22  2  0
 21 23  1  0
 23 24  1  0
 24 25  2  0
 25  6  1  0
 24  9  1  0
 20 12  1  0
 19 14  1  0
M  END
$$$$
