
     RDKit          3D

 25 26  0  0  0  0  0  0  0  0999 V2000
  -14.1581   -1.3656  -33.5003 Br  0  0  0  0  0  0  0  0  0  0  0  0
  -15.0238   -5.0263  -35.9734 C   0  0  0  0  0  0  0  0  0  0  0  0
  -14.5981   -3.6245  -35.8283 N   0  0  0  0  0  0  0  0  0  0  0  0
  -13.3875   -3.5068  -36.6276 C   0  0  0  0  0  0  0  0  0  0  0  0
  -14.3349   -3.4478  -34.4161 C   0  0  0  0  0  0  0  0  0  0  0  0
  -13.8798   -1.9956  -34.1465 C   0  0  0  0  0  0  0  0  0  0  0  0
  -13.6180   -1.8382  -32.7044 C   0  0  0  0  0  0  0  0  0  0  0  0
  -13.2064   -0.5078  -32.1894 C   0  0  0  0  0  0  0  0  0  0  0  0
  -11.9635    0.0537  -32.7599 C   0  0  0  0  0  0  0  0  0  0  0  0
  -10.8099    0.2415  -31.9736 C   0  0  0  0  0  0  0  0  0  0  0  0
   -9.6426    0.7641  -32.4819 C   0  0  0  0  0  0  0  0  0  0  0  0
   -9.5881    1.1215  -33.8110 C   0  0  0  0  0  0  0  0  0  0  0  0
   -8.4299    1.6331  -34.2885 F   0  0  0  0  0  0  0  0  0  0  0  0
  -10.7018    0.9489  -34.6039 C   0  0  0  0  0  0  0  0  0  0  0  0
  -11.8795    0.4193  -34.0817 C   0  0  0  0  0  0  0  0  0  0  0  0
  -12.8583   -0.7890  -30.8326 O   0  0  0  0  0  0  0  0  0  0  0  0
  -14.0501   -0.7154  -30.1331 C   0  0  0  0  0  0  0  0  0  0  0  0
  -14.8365    0.3470  -30.8053 C   0  0  0  0  0  0  0  0  0  0  0  0
  -15.8738    1.1141  -30.3877 C   0  0  0  0  0  0  0  0  0  0  0  0
  -16.4585    2.0796  -31.2153 C   0  0  0  0  0  0  0  0  0  0  0  0
  -17.5560    2.8905  -30.7718 C   0  0  0  0  0  0  0  0  0  0  0  0
  -18.4573    3.5471  -30.4034 N   0  0  0  0  0  0  0  0  0  0  0  0
  -15.9086    2.1914  -32.4706 C   0  0  0  0  0  0  0  0  0  0  0  0
  -14.8562    1.4172  -32.9031 C   0  0  0  0  0  0  0  0  0  0  0  0
  -14.3110    0.4823  -32.0630 C   0  0  0  0  0  0  0  0  0  0  0  0
  2  3  1  0
  3  4  1  0
  3  5  1  0
  5  6  1  0
  6  7  1  0
  7  8  1  0
  8  9  1  0
  9 10  2  0
 10 11  1  0
 11 12  2  0
 12 13  1  0
 12 14  1  0
 14 15  2  0
  8 16  1  0
 16 17  1  0
 17 18  1  0
 18 19  2  0
 19 20  1  0
 20 21  1  0
 21 22  3  0
 20 23  2  0
 23 24  1  0
 24 25  2  0
 25  8  1  0
 15  9  1  0
 25 18  1  0
M  END
$$$$
