
     RDKit          3D

 20 20  0  0  0  0  0  0  0  0999 V2000
  -14.3612   16.8181  -35.4815 C   0  0  0  0  0  0  0  0  0  0  0  0
  -15.2030   17.9869  -35.5598 N   0  0  0  0  0  0  0  0  0  0  0  0
  -16.2737   17.8668  -36.5300 C   0  0  0  0  0  0  0  0  0  0  0  0
  -15.6550   17.8616  -37.8947 C   0  0  0  0  0  0  0  0  0  0  0  0
  -16.7159   17.7411  -38.9986 C   0  0  1  0  0  0  0  0  0  0  0  0
  -17.6193   18.7287  -39.0266 O   0  0  0  0  0  0  0  0  0  0  0  0
  -18.8654   19.0468  -39.3058 C   0  0  0  0  0  0  0  0  0  0  0  0
  -19.2953   20.3595  -39.0483 C   0  0  0  0  0  0  0  0  0  0  0  0
  -20.5847   20.7837  -39.3128 C   0  0  0  0  0  0  0  0  0  0  0  0
  -21.4984   19.8995  -39.8489 C   0  0  0  0  0  0  0  0  0  0  0  0
  -21.1153   18.5976  -40.1174 C   0  0  0  0  0  0  0  0  0  0  0  0
  -19.7956   18.2042  -39.8357 C   0  0  0  0  0  0  0  0  0  0  0  0
  -19.3839   16.8184  -40.1461 C   0  0  0  0  0  0  0  0  0  0  0  0
  -15.8961   17.8888  -40.2764 C   0  0  0  0  0  0  0  0  0  0  0  0
  -15.5929   16.8079  -41.0466 C   0  0  0  0  0  0  0  0  0  0  0  0
  -14.8626   17.0076  -42.1912 C   0  0  0  0  0  0  0  0  0  0  0  0
  -14.4463   18.2885  -42.5481 C   0  0  0  0  0  0  0  0  0  0  0  0
  -14.7685   19.3590  -41.7485 C   0  0  0  0  0  0  0  0  0  0  0  0
  -15.5125   19.1770  -40.5761 C   0  0  0  0  0  0  0  0  0  0  0  0
  -17.7090   18.2614  -39.3193 Cl  0  0  0  0  0  0  0  0  0  0  0  0
  1  2  1  0
  2  3  1  0
  3  4  1  0
  5  4  1  1
  5  6  1  0
  6  7  1  0
  7  8  2  0
  8  9  1  0
  9 10  2  0
 10 11  1  0
 11 12  2  0
 12 13  1  0
  5 14  1  0
 14 15  2  0
 15 16  1  0
 16 17  2  0
 17 18  1  0
 18 19  2  0
 12  7  1  0
 19 14  1  0
M  END
$$$$
