
     RDKit          3D

 28 31  0  0  0  0  0  0  0  0999 V2000
  -11.0175   44.2306  -19.3589 C   0  0  0  0  0  0  0  0  0  0  0  0
  -12.4615   44.1875  -19.3637 N   0  0  0  0  0  0  0  0  0  0  0  0
  -13.1748   43.0987  -19.8728 C   0  0  0  0  0  0  0  0  0  0  0  0
  -12.4963   42.1091  -20.3066 O   0  0  0  0  0  0  0  0  0  0  0  0
  -14.6241   43.0192  -19.9403 C   0  0  0  0  0  0  0  0  0  0  0  0
  -15.4754   44.0308  -19.5580 C   0  0  0  0  0  0  0  0  0  0  0  0
  -16.7264   43.5848  -19.7669 N   0  0  0  0  0  0  0  0  0  0  0  0
  -16.7353   42.3579  -20.2563 N   0  0  0  0  0  0  0  0  0  0  0  0
  -17.8476   41.5319  -20.6132 C   0  0  0  0  0  0  0  0  0  0  0  0
  -19.1131   41.8663  -20.3055 N   0  0  0  0  0  0  0  0  0  0  0  0
  -20.1953   41.1327  -20.6135 C   0  0  0  0  0  0  0  0  0  0  0  0
  -21.5099   41.4859  -20.2907 N   0  0  0  0  0  0  0  0  0  0  0  0
  -20.0079   39.9409  -21.2988 C   0  0  0  0  0  0  0  0  0  0  0  0
  -20.8367   38.9922  -21.7514 N   0  0  0  0  0  0  0  0  0  0  0  0
  -20.0954   38.0319  -22.3597 C   0  0  0  0  0  0  0  0  0  0  0  0
  -18.8088   38.4074  -22.2718 N   0  0  0  0  0  0  0  0  0  0  0  0
  -17.6539   37.6712  -22.7940 C   0  0  2  0  0  0  0  0  0  0  0  0
  -18.0931   36.6203  -23.5301 O   0  0  0  0  0  0  0  0  0  0  0  0
  -17.6974   35.4416  -22.9869 C   0  0  2  0  0  0  0  0  0  0  0  0
  -18.7788   34.3828  -22.9465 C   0  0  0  0  0  0  0  0  0  0  0  0
  -18.3505   33.3011  -22.1709 O   0  0  0  0  0  0  0  0  0  0  0  0
  -17.1217   35.6794  -21.6334 C   0  0  1  0  0  0  0  0  0  0  0  0
  -15.9740   34.9535  -21.3865 O   0  0  0  0  0  0  0  0  0  0  0  0
  -16.8684   37.1660  -21.6201 C   0  0  1  0  0  0  0  0  0  0  0  0
  -15.5027   37.4211  -21.7366 O   0  0  0  0  0  0  0  0  0  0  0  0
  -18.7159   39.5820  -21.6228 C   0  0  0  0  0  0  0  0  0  0  0  0
  -17.6695   40.3748  -21.2783 N   0  0  0  0  0  0  0  0  0  0  0  0
  -15.4430   42.0002  -20.3669 C   0  0  0  0  0  0  0  0  0  0  0  0
  1  2  1  0
  2  3  1  0
  3  4  2  0
  3  5  1  0
  5  6  1  0
  6  7  2  0
  7  8  1  0
  8  9  1  0
  9 10  2  0
 10 11  1  0
 11 12  1  0
 11 13  2  0
 13 14  1  0
 14 15  2  0
 15 16  1  0
 17 16  1  1
 17 18  1  0
 18 19  1  0
 19 20  1  1
 20 21  1  0
 19 22  1  0
 22 23  1  6
 22 24  1  0
 24 25  1  6
 16 26  1  0
 26 27  2  0
  8 28  1  0
 28  5  2  0
 27  9  1  0
 26 13  1  0
 24 17  1  0
M  END
$$$$
