
     RDKit          3D

 26 29  0  0  0  0  0  0  0  0999 V2000
    0.7157   26.4953  -20.6624 C   0  0  0  0  0  0  0  0  0  0  0  0
    1.9352   26.5425  -21.4114 N   0  0  0  0  0  0  0  0  0  0  0  0
    2.5123   27.8798  -21.2260 C   0  0  0  0  0  0  0  0  0  0  0  0
    2.8566   25.5978  -20.8588 C   0  0  0  0  0  0  0  0  0  0  0  0
    3.8215   26.2244  -19.9029 C   0  0  0  0  0  0  0  0  0  0  0  0
    4.9233   25.2938  -19.5149 C   0  0  0  0  0  0  0  0  0  0  0  0
    4.4673   23.8834  -19.4635 C   0  0  0  0  0  0  0  0  0  0  0  0
    5.1565   22.7707  -19.1691 N   0  0  0  0  0  0  0  0  0  0  0  0
    4.3401   21.6959  -19.2434 C   0  0  0  0  0  0  0  0  0  0  0  0
    4.5149   20.3276  -19.0442 C   0  0  0  0  0  0  0  0  0  0  0  0
    3.4496   19.4706  -19.2037 C   0  0  0  0  0  0  0  0  0  0  0  0
    2.1863   19.8864  -19.5570 C   0  0  0  0  0  0  0  0  0  0  0  0
    1.1126   18.9669  -19.7114 N   0  0  0  0  0  0  0  0  0  0  0  0
    0.6794   18.0795  -18.7016 C   0  0  0  0  0  0  0  0  0  0  0  0
    1.3637   18.0251  -17.6485 O   0  0  0  0  0  0  0  0  0  0  0  0
   -0.5224   17.2242  -18.8219 C   0  0  0  0  0  0  0  0  0  0  0  0
   -0.8720   16.6257  -20.0049 C   0  0  0  0  0  0  0  0  0  0  0  0
   -2.0201   15.8268  -20.0604 C   0  0  0  0  0  0  0  0  0  0  0  0
   -2.8180   15.6198  -18.9555 C   0  0  0  0  0  0  0  0  0  0  0  0
   -3.9153   14.8330  -19.0845 F   0  0  0  0  0  0  0  0  0  0  0  0
   -2.4607   16.2257  -17.7652 C   0  0  0  0  0  0  0  0  0  0  0  0
   -1.3308   17.0072  -17.7261 C   0  0  0  0  0  0  0  0  0  0  0  0
    2.0108   21.2528  -19.7562 C   0  0  0  0  0  0  0  0  0  0  0  0
    3.0755   22.1143  -19.5974 C   0  0  0  0  0  0  0  0  0  0  0  0
    3.1798   23.4935  -19.7303 C   0  0  0  0  0  0  0  0  0  0  0  0
    2.1369   24.4826  -20.0961 C   0  0  0  0  0  0  0  0  0  0  0  0
  1  2  1  0
  2  3  1  0
  2  4  1  0
  4  5  1  0
  5  6  1  0
  6  7  1  0
  7  8  1  0
  8  9  1  0
  9 10  2  0
 10 11  1  0
 11 12  2  0
 12 13  1  0
 13 14  1  0
 14 15  2  0
 14 16  1  0
 16 17  2  0
 17 18  1  0
 18 19  2  0
 19 20  1  0
 19 21  1  0
 21 22  2  0
 12 23  1  0
 23 24  2  0
 24 25  1  0
 25 26  1  0
 26  4  1  0
 25  7  2  0
 24  9  1  0
 22 16  1  0
M  END
$$$$
