
     RDKit          3D

  6  6  0  0  0  0  0  0  0  0999 V2000
  -18.7319   39.4030  -20.0918 N   0  0  0  0  0  0  0  0  0  0  0  0
  -18.2462   38.5051  -21.0780 C   0  0  0  0  0  0  0  0  0  0  0  0
  -17.0640   37.8234  -21.0325 N   0  0  0  0  0  0  0  0  0  0  0  0
  -16.9687   37.0820  -22.1453 C   0  0  0  0  0  0  0  0  0  0  0  0
  -18.0853   37.3204  -22.8476 N   0  0  0  0  0  0  0  0  0  0  0  0
  -18.8718   38.1767  -22.2227 N   0  0  0  0  0  0  0  0  0  0  0  0
  1  2  1  0
  2  3  1  0
  3  4  2  0
  4  5  1  0
  5  6  1  0
  6  2  2  0
M  END
$$$$
