
     RDKit          3D

 28 30  0  0  0  0  0  0  0  0999 V2000
  -13.7441   44.4283  -17.3163 C   0  0  0  0  0  0  0  0  0  0  0  0
  -13.7324   44.3025  -18.6940 O   0  0  0  0  0  0  0  0  0  0  0  0
  -14.5744   43.7713  -19.5782 C   0  0  0  0  0  0  0  0  0  0  0  0
  -15.9156   43.5375  -19.2768 C   0  0  0  0  0  0  0  0  0  0  0  0
  -16.7936   42.9890  -20.1873 C   0  0  0  0  0  0  0  0  0  0  0  0
  -16.3663   42.6457  -21.4483 C   0  0  0  0  0  0  0  0  0  0  0  0
  -17.3694   41.9183  -22.6774 S   0  0  0  0  0  6  0  0  0  0  0  0
  -18.8040   41.9597  -22.1901 O   0  0  0  0  0  0  0  0  0  0  0  0
  -17.2909   42.7318  -23.9105 O   0  0  0  0  0  0  0  0  0  0  0  0
  -16.9371   40.3107  -23.0482 N   0  0  0  0  0  0  0  0  0  0  0  0
  -17.6276   39.1536  -22.4233 C   0  0  0  0  0  0  0  0  0  0  0  0
  -17.6775   38.0114  -22.4863 N   0  0  0  0  0  0  0  0  0  0  0  0
  -18.3902   37.1195  -21.8532 C   0  0  0  0  0  0  0  0  0  0  0  0
  -18.3353   35.6386  -22.0688 C   0  0  0  0  0  0  0  0  0  0  0  0
  -17.2164   35.0707  -22.6111 C   0  0  0  0  0  0  0  0  0  0  0  0
  -17.1198   33.6960  -22.8167 C   0  0  0  0  0  0  0  0  0  0  0  0
  -18.1878   32.9049  -22.4610 C   0  0  0  0  0  0  0  0  0  0  0  0
  -19.3283   33.4393  -21.9141 C   0  0  0  0  0  0  0  0  0  0  0  0
  -20.4497   32.6657  -21.5194 N   0  0  0  0  0  4  0  0  0  0  0  0
  -21.4556   33.1635  -20.9989 O   0  0  0  0  0  0  0  0  0  0  0  0
  -20.4589   31.3058  -21.6912 O   0  0  0  0  0  1  0  0  0  0  0  0
  -19.3665   34.8085  -21.7318 C   0  0  0  0  0  0  0  0  0  0  0  0
  -19.2378   37.6963  -20.9333 C   0  0  0  0  0  0  0  0  0  0  0  0
  -18.9077   39.4799  -21.0914 S   0  0  0  0  0  0  0  0  0  0  0  0
  -15.0320   42.8791  -21.7451 C   0  0  0  0  0  0  0  0  0  0  0  0
  -14.1662   43.4146  -20.8662 C   0  0  0  0  0  0  0  0  0  0  0  0
  -12.8186   43.6557  -21.1392 O   0  0  0  0  0  0  0  0  0  0  0  0
  -12.3336   43.7947  -22.4591 C   0  0  0  0  0  0  0  0  0  0  0  0
  1  2  1  0
  2  3  1  0
  3  4  2  0
  4  5  1  0
  5  6  2  0
  6  7  1  0
  7  8  2  0
  7  9  2  0
  7 10  1  0
 10 11  1  0
 11 12  2  0
 12 13  1  0
 13 14  1  0
 14 15  2  0
 15 16  1  0
 16 17  2  0
 17 18  1  0
 18 19  1  0
 19 20  2  0
 19 21  1  0
 18 22  2  0
 13 23  2  0
 23 24  1  0
  6 25  1  0
 25 26  2  0
 26 27  1  0
 27 28  1  0
 26  3  1  0
 24 11  1  0
 22 14  1  0
M  CHG  2  19   1  21  -1
M  END
$$$$
