
     RDKit          3D

 28 31  0  0  0  0  0  0  0  0999 V2000
  -21.4666   15.8362  -19.2865 C   0  0  0  0  0  0  0  0  0  0  0  0
  -21.0792   16.9306  -20.2375 C   0  0  0  0  0  0  0  0  0  0  0  0
  -22.3390   17.7524  -20.5404 C   0  0  0  0  0  0  0  0  0  0  0  0
  -20.6226   16.3795  -21.5400 C   0  0  0  0  0  0  0  0  0  0  0  0
  -19.2766   16.2954  -21.7684 C   0  0  0  0  0  0  0  0  0  0  0  0
  -18.8478   15.8032  -22.9402 C   0  0  0  0  0  0  0  0  0  0  0  0
  -19.7361   15.3719  -23.9400 C   0  0  0  0  0  0  0  0  0  0  0  0
  -19.0980   14.7697  -25.0658 N   0  0  0  0  0  0  0  0  0  0  0  0
  -17.9812   15.4020  -25.7045 C   0  0  0  0  0  0  0  0  0  0  0  0
  -17.4909   16.4034  -25.1467 O   0  0  0  0  0  0  0  0  0  0  0  0
  -17.4363   14.9061  -26.9478 C   0  0  0  0  0  0  0  0  0  0  0  0
  -17.8953   13.7440  -27.6458 C   0  0  0  0  0  0  0  0  0  0  0  0
  -17.2738   13.4444  -28.7699 C   0  0  0  0  0  0  0  0  0  0  0  0
  -16.2518   14.1995  -29.2398 C   0  0  0  0  0  0  0  0  0  0  0  0
  -16.1609   15.4815  -27.9398 S   0  0  0  0  0  0  0  0  0  0  0  0
  -21.0657   15.4410  -23.7582 C   0  0  0  0  0  0  0  0  0  0  0  0
  -22.1232   15.1781  -24.7185 C   0  0  0  0  0  0  0  0  0  0  0  0
  -23.0578   16.1685  -24.8938 N   0  0  0  0  0  0  0  0  0  0  0  0
  -24.0416   16.0981  -25.7704 C   0  0  0  0  0  0  0  0  0  0  0  0
  -24.9658   17.1276  -25.9038 C   0  0  0  0  0  0  0  0  0  0  0  0
  -25.9716   16.9966  -26.8298 C   0  0  0  0  0  0  0  0  0  0  0  0
  -26.1191   15.8923  -27.6428 C   0  0  0  0  0  0  0  0  0  0  0  0
  -25.2143   14.8816  -27.5138 C   0  0  0  0  0  0  0  0  0  0  0  0
  -24.1859   14.9979  -26.5778 C   0  0  0  0  0  0  0  0  0  0  0  0
  -23.2879   14.0315  -26.4211 N   0  0  0  0  0  0  0  0  0  0  0  0
  -22.2530   14.0866  -25.5117 C   0  0  0  0  0  0  0  0  0  0  0  0
  -21.5090   13.1097  -25.5044 O   0  0  0  0  0  0  0  0  0  0  0  0
  -21.4949   15.9653  -22.5038 C   0  0  0  0  0  0  0  0  0  0  0  0
  1  2  1  0
  2  3  1  0
  2  4  1  0
  4  5  2  0
  5  6  1  0
  6  7  2  0
  7  8  1  0
  8  9  1  0
  9 10  2  0
  9 11  1  0
 11 12  2  0
 12 13  1  0
 13 14  2  0
 14 15  1  0
  7 16  1  0
 16 17  1  0
 17 18  2  0
 18 19  1  0
 19 20  2  0
 20 21  1  0
 21 22  2  0
 22 23  1  0
 23 24  2  0
 24 25  1  0
 25 26  1  0
 26 27  2  0
 16 28  2  0
 28  4  1  0
 15 11  1  0
 26 17  1  0
 24 19  1  0
M  END
$$$$
