
     RDKit          3D

 23 24  0  0  0  0  0  0  0  0999 V2000
  -20.5767   12.5811  -31.3839 N   0  0  0  0  0  0  0  0  0  0  0  0
  -19.9919   13.5834  -31.7000 C   0  0  0  0  0  0  0  0  0  0  0  0
  -19.3264   14.7536  -32.0867 C   0  0  0  0  0  0  0  0  0  0  0  0
  -18.4893   15.3443  -31.1763 C   0  0  0  0  0  0  0  0  0  0  0  0
  -18.6116   15.1152  -29.7966 N   0  0  0  0  0  0  0  0  0  0  0  0
  -17.2220   16.4232  -31.7915 S   0  0  0  0  0  0  0  0  0  0  0  0
  -15.6764   15.5493  -31.8208 C   0  0  0  0  0  0  0  0  0  0  0  0
  -14.8077   15.4685  -30.7384 C   0  0  0  0  0  0  0  0  0  0  0  0
  -13.6085   14.8058  -30.7993 C   0  0  0  0  0  0  0  0  0  0  0  0
  -13.2311   14.1892  -31.9724 C   0  0  0  0  0  0  0  0  0  0  0  0
  -12.0153   13.4947  -32.1113 N   0  0  0  0  0  0  0  0  0  0  0  0
  -14.0883   14.2672  -33.0459 C   0  0  0  0  0  0  0  0  0  0  0  0
  -15.2769   14.9183  -33.0009 C   0  0  0  0  0  0  0  0  0  0  0  0
  -19.4255   15.4662  -33.3471 C   0  0  0  0  0  0  0  0  0  0  0  0
  -18.5443   15.2479  -34.3869 C   0  0  0  0  0  0  0  0  0  0  0  0
  -18.6178   15.8587  -35.6195 C   0  0  0  0  0  0  0  0  0  0  0  0
  -19.6295   16.7527  -35.8589 C   0  0  0  0  0  0  0  0  0  0  0  0
  -20.5398   16.9996  -34.8318 C   0  0  0  0  0  0  0  0  0  0  0  0
  -20.4331   16.3631  -33.5968 C   0  0  0  0  0  0  0  0  0  0  0  0
  -21.4401   16.7320  -32.5580 C   0  0  0  0  0  0  0  0  0  0  0  0
  -22.6573   16.1753  -32.8166 F   0  0  0  0  0  0  0  0  0  0  0  0
  -20.9044   16.4708  -31.3371 F   0  0  0  0  0  0  0  0  0  0  0  0
  -21.6564   18.1225  -32.6006 F   0  0  0  0  0  0  0  0  0  0  0  0
  1  2  3  0
  2  3  1  0
  3  4  2  0
  4  5  1  0
  4  6  1  0
  6  7  1  0
  7  8  2  0
  8  9  1  0
  9 10  2  0
 10 11  1  0
 10 12  1  0
 12 13  2  0
  3 14  1  0
 14 15  2  0
 15 16  1  0
 16 17  2  0
 17 18  1  0
 18 19  2  0
 19 20  1  0
 20 21  1  0
 20 22  1  0
 20 23  1  0
 13  7  1  0
 19 14  1  0
M  END
$$$$
