
     RDKit          3D

 29 34  0  0  0  0  0  0  0  0999 V2000
  -17.1222   20.5471  -34.5729 C   0  0  0  0  0  0  0  0  0  0  0  0
  -17.2133   19.2736  -33.8942 N   0  0  0  0  0  0  0  0  0  0  0  0
  -16.6350   19.1597  -32.5747 C   0  0  0  0  0  0  0  0  0  0  0  0
  -16.4778   17.7061  -32.2098 C   0  0  0  0  0  0  0  0  0  0  0  0
  -15.4401   17.3207  -31.6046 O   0  0  0  0  0  0  0  0  0  0  0  0
  -17.4719   16.7438  -32.5287 N   0  0  0  0  0  0  0  0  0  0  0  0
  -18.3579   17.0325  -33.6402 C   0  0  2  0  0  0  0  0  0  0  0  0
  -18.4711   15.7874  -34.5243 C   0  0  0  0  0  0  0  0  0  0  0  0
  -18.9636   14.7010  -33.6377 C   0  0  0  0  0  0  0  0  0  0  0  0
  -18.5284   14.5982  -32.3507 C   0  0  0  0  0  0  0  0  0  0  0  0
  -19.1516   13.5262  -31.8201 N   0  0  0  0  0  0  0  0  0  0  0  0
  -19.9578   12.9635  -32.7381 C   0  0  0  0  0  0  0  0  0  0  0  0
  -20.8003   11.8711  -32.7155 C   0  0  0  0  0  0  0  0  0  0  0  0
  -21.5355   11.5077  -33.8439 C   0  0  0  0  0  0  0  0  0  0  0  0
  -21.4365   12.2324  -35.0075 C   0  0  0  0  0  0  0  0  0  0  0  0
  -20.5971   13.3217  -35.0317 C   0  0  0  0  0  0  0  0  0  0  0  0
  -19.8674   13.6820  -33.9110 C   0  0  0  0  0  0  0  0  0  0  0  0
  -17.5430   15.5443  -31.7297 C   0  0  1  0  0  0  0  0  0  0  0  0
  -16.2274   14.8987  -31.5110 C   0  0  0  0  0  0  0  0  0  0  0  0
  -15.3523   14.7183  -32.5570 C   0  0  0  0  0  0  0  0  0  0  0  0
  -14.1208   14.1265  -32.4135 C   0  0  0  0  0  0  0  0  0  0  0  0
  -13.7120   13.6816  -31.1783 C   0  0  0  0  0  0  0  0  0  0  0  0
  -14.5622   13.8453  -30.1068 C   0  0  0  0  0  0  0  0  0  0  0  0
  -15.7932   14.4425  -30.2766 C   0  0  0  0  0  0  0  0  0  0  0  0
  -13.9021   13.3147  -29.0098 O   0  0  0  0  0  0  0  0  0  0  0  0
  -12.7596   12.5766  -29.4287 C   0  0  0  0  0  0  0  0  0  0  0  0
  -12.5350   13.0503  -30.7274 O   0  0  0  0  0  0  0  0  0  0  0  0
  -17.8393   18.1317  -34.4542 C   0  0  0  0  0  0  0  0  0  0  0  0
  -17.9466   18.0749  -35.7050 O   0  0  0  0  0  0  0  0  0  0  0  0
  1  2  1  0
  2  3  1  0
  3  4  1  0
  4  5  2  0
  4  6  1  0
  6  7  1  0
  7  8  1  6
  8  9  1  0
  9 10  2  0
 10 11  1  0
 11 12  1  0
 12 13  2  0
 13 14  1  0
 14 15  2  0
 15 16  1  0
 16 17  2  0
 10 18  1  0
 18 19  1  6
 19 20  2  0
 20 21  1  0
 21 22  2  0
 22 23  1  0
 23 24  2  0
 23 25  1  0
 25 26  1  0
 26 27  1  0
  7 28  1  0
 28 29  2  0
 28  2  1  0
 18  6  1  0
 24 19  1  0
 17  9  1  0
 27 22  1  0
 17 12  1  0
M  END
$$$$
