
     RDKit          3D

 29 32  0  0  0  0  0  0  0  0999 V2000
  -17.0495   14.6655  -25.9506 C   0  0  0  0  0  0  0  0  0  0  0  0
  -16.2140   13.6043  -26.6555 C   0  0  0  0  0  0  0  0  0  0  0  0
  -15.5139   14.2077  -27.8090 C   0  0  2  0  0  0  0  0  0  0  0  0
  -16.3511   14.5761  -28.9333 N   0  0  0  0  0  0  0  0  0  0  0  0
  -16.1960   15.8170  -29.6269 C   0  0  0  0  0  0  0  0  0  0  0  0
  -15.0973   16.4092  -29.3830 O   0  0  0  0  0  0  0  0  0  0  0  0
  -17.1686   16.3804  -30.5377 C   0  0  0  0  0  0  0  0  0  0  0  0
  -18.0841   15.5887  -31.2518 C   0  0  0  0  0  0  0  0  0  0  0  0
  -18.0482   14.1338  -31.0555 C   0  0  0  0  0  0  0  0  0  0  0  0
  -18.9858   16.1443  -32.1193 C   0  0  0  0  0  0  0  0  0  0  0  0
  -19.9204   15.3027  -32.8431 C   0  0  0  0  0  0  0  0  0  0  0  0
  -20.5712   14.2684  -32.1578 C   0  0  0  0  0  0  0  0  0  0  0  0
  -21.4438   13.4183  -32.7712 C   0  0  0  0  0  0  0  0  0  0  0  0
  -21.6881   13.5903  -34.1135 C   0  0  0  0  0  0  0  0  0  0  0  0
  -21.0788   14.5876  -34.8385 C   0  0  0  0  0  0  0  0  0  0  0  0
  -20.2048   15.4280  -34.1931 C   0  0  0  0  0  0  0  0  0  0  0  0
  -19.0058   17.4745  -32.3033 N   0  0  0  0  0  0  0  0  0  0  0  0
  -18.1485   18.2854  -31.6466 C   0  0  0  0  0  0  0  0  0  0  0  0
  -18.1379   19.6380  -31.8371 C   0  0  0  0  0  0  0  0  0  0  0  0
  -17.2605   20.4860  -31.2005 C   0  0  0  0  0  0  0  0  0  0  0  0
  -16.3380   19.9665  -30.3238 C   0  0  0  0  0  0  0  0  0  0  0  0
  -16.3292   18.5749  -30.1097 C   0  0  0  0  0  0  0  0  0  0  0  0
  -17.2133   17.7365  -30.7498 C   0  0  0  0  0  0  0  0  0  0  0  0
  -14.4559   13.3153  -28.3668 C   0  0  0  0  0  0  0  0  0  0  0  0
  -13.1325   13.4611  -27.9765 C   0  0  0  0  0  0  0  0  0  0  0  0
  -12.0970   12.7015  -28.4568 C   0  0  0  0  0  0  0  0  0  0  0  0
  -12.3679   11.7190  -29.3933 C   0  0  0  0  0  0  0  0  0  0  0  0
  -13.6691   11.5397  -29.8099 C   0  0  0  0  0  0  0  0  0  0  0  0
  -14.6986   12.3345  -29.2973 C   0  0  0  0  0  0  0  0  0  0  0  0
  1  2  1  0
  3  2  1  1
  3  4  1  0
  4  5  1  0
  5  6  2  0
  5  7  1  0
  7  8  2  0
  8  9  1  0
  8 10  1  0
 10 11  1  0
 11 12  2  0
 12 13  1  0
 13 14  2  0
 14 15  1  0
 15 16  2  0
 10 17  2  0
 17 18  1  0
 18 19  2  0
 19 20  1  0
 20 21  2  0
 21 22  1  0
 22 23  2  0
  3 24  1  0
 24 25  2  0
 25 26  1  0
 26 27  2  0
 27 28  1  0
 28 29  2  0
 23  7  1  0
 29 24  1  0
 16 11  1  0
 23 18  1  0
M  END
$$$$
