
     RDKit          3D

 10  9  0  0  0  0  0  0  0  0999 V2000
  -18.3335   36.2288  -22.1860 Cl  0  0  0  0  0  0  0  0  0  0  0  0
  -16.9089   38.6145  -22.0380 N   0  0  0  0  0  0  0  0  0  0  0  0
  -17.5429   37.3784  -21.6157 C   0  0  0  0  0  0  0  0  0  0  0  0
  -18.0453   36.6019  -22.7868 C   0  0  0  0  0  0  0  0  0  0  0  0
  -18.7012   35.3410  -22.4814 C   0  0  0  0  0  0  0  0  0  0  0  0
  -17.9037   34.1996  -22.4229 C   0  0  0  0  0  0  0  0  0  0  0  0
  -18.3703   32.9504  -22.1490 C   0  0  0  0  0  0  0  0  0  0  0  0
  -19.7331   32.8169  -21.9141 C   0  0  0  0  0  0  0  0  0  0  0  0
  -20.5467   33.9199  -21.9638 C   0  0  0  0  0  0  0  0  0  0  0  0
  -20.0345   35.1646  -22.2441 C   0  0  0  0  0  0  0  0  0  0  0  0
  2  3  1  0
  3  4  1  0
  4  5  1  0
  5  6  2  0
  6  7  1  0
  7  8  2  0
  8  9  1  0
  9 10  2  0
 10  5  1  0
M  END
$$$$
