
     RDKit          3D

 16 17  0  0  0  0  0  0  0  0999 V2000
   -6.1465    7.5642  -12.1049 C   0  0  0  0  0  0  0  0  0  0  0  0
   -6.8629    6.7252  -13.0356 N   0  0  0  0  0  0  0  0  0  0  0  0
   -6.2273    5.6962  -13.7879 C   0  0  0  0  0  0  0  0  0  0  0  0
   -8.2755    6.9478  -13.2006 C   0  0  0  0  0  0  0  0  0  0  0  0
   -9.0113    7.9064  -12.6079 N   0  0  0  0  0  0  0  0  0  0  0  0
  -10.3022    7.8175  -12.9940 C   0  0  0  0  0  0  0  0  0  0  0  0
  -11.4497    8.5263  -12.7028 C   0  0  0  0  0  0  0  0  0  0  0  0
  -11.3725    9.9990  -11.4981 Br  0  0  0  0  0  0  0  0  0  0  0  0
  -12.6324    8.1494  -13.2945 C   0  0  0  0  0  0  0  0  0  0  0  0
  -14.2233    9.1232  -12.8980 Br  0  0  0  0  0  0  0  0  0  0  0  0
  -12.7343    7.0949  -14.1685 C   0  0  0  0  0  0  0  0  0  0  0  0
  -14.3724    6.5679  -14.9919 Br  0  0  0  0  0  0  0  0  0  0  0  0
  -11.5847    6.3907  -14.4554 C   0  0  0  0  0  0  0  0  0  0  0  0
  -11.6337    4.9100  -15.6597 Br  0  0  0  0  0  0  0  0  0  0  0  0
  -10.3692    6.7533  -13.8673 C   0  0  0  0  0  0  0  0  0  0  0  0
   -9.1272    6.2497  -13.9702 N   0  0  0  0  0  0  0  0  0  0  0  0
  1  2  1  0
  2  3  1  0
  2  4  1  0
  4  5  2  0
  5  6  1  0
  6  7  2  0
  7  8  1  0
  7  9  1  0
  9 10  1  0
  9 11  2  0
 11 12  1  0
 11 13  1  0
 13 14  1  0
 13 15  2  0
 15 16  1  0
 16  4  1  0
 15  6  1  0
M  END
$$$$
