
     RDKit          3D

 15 13  0  0  0  0  0  0  0  0999 V2000
  -16.5837   34.7300  -21.4141 C   0  0  0  0  0  0  0  0  0  0  0  0
  -17.2237   36.0606  -21.3246 C   0  0  0  0  0  0  0  0  0  0  0  0
  -17.5382   36.5386  -20.1642 N   0  0  0  0  0  0  0  0  0  0  0  0
  -17.5006   36.8235  -22.4757 N   0  0  0  0  0  0  0  0  0  0  0  0
  -18.5552   37.8064  -22.5126 C   0  0  0  0  0  0  0  0  0  0  0  0
  -18.6292   38.4595  -23.8359 C   0  0  0  0  0  0  0  0  0  0  0  0
  -17.8957   39.6104  -24.0975 C   0  0  0  0  0  0  0  0  0  0  0  0
  -17.9743   40.2096  -25.3367 C   0  0  0  0  0  0  0  0  0  0  0  0
  -18.7773   39.6810  -26.3335 C   0  0  0  0  0  0  0  0  0  0  0  0
  -19.5151   38.5365  -26.0935 C   0  0  0  0  0  0  0  0  0  0  0  0
  -20.3804   37.9536  -27.1444 C   0  0  0  0  0  0  0  0  0  0  0  0
  -21.7297   38.4915  -27.1036 N   0  0  0  0  0  0  0  0  0  0  0  0
  -19.4273   37.9492  -24.8528 C   0  0  0  0  0  0  0  0  0  0  0  0
  -18.3106   37.4888  -23.5753 Cl  0  0  0  0  0  0  0  0  0  0  0  0
  -18.3115   37.4896  -23.5769 Cl  0  0  0  0  0  0  0  0  0  0  0  0
  1  2  1  0
  2  3  2  0
  2  4  1  0
  4  5  1  0
  5  6  1  0
  6  7  2  0
  7  8  1  0
  8  9  2  0
  9 10  1  0
 10 11  1  0
 11 12  1  0
 10 13  2  0
 13  6  1  0
M  END
$$$$
