
     RDKit          3D

 28 31  0  0  0  0  0  0  0  0999 V2000
  -32.0876   20.8368  -27.7708 C   0  0  0  0  0  0  0  0  0  0  0  0
  -30.6405   20.8562  -27.7360 N   0  0  0  0  0  0  0  0  0  0  0  0
  -30.0194   20.2964  -26.5854 C   0  0  0  0  0  0  0  0  0  0  0  0
  -30.8174   19.6422  -25.8655 O   0  0  0  0  0  0  0  0  0  0  0  0
  -28.6391   20.3259  -26.0671 C   0  0  1  0  0  0  0  0  0  0  0  0
  -27.9372   19.1896  -26.6113 N   0  0  0  0  0  0  0  0  0  0  0  0
  -27.0277   18.4660  -25.7970 C   0  0  0  0  0  0  0  0  0  0  0  0
  -25.9432   19.0278  -25.4997 O   0  0  0  0  0  0  0  0  0  0  0  0
  -27.3333   17.1101  -25.3144 C   0  0  0  0  0  0  0  0  0  0  0  0
  -27.4232   15.9766  -25.9933 N   0  0  0  0  0  0  0  0  0  0  0  0
  -27.7238   14.9651  -25.1600 C   0  0  0  0  0  0  0  0  0  0  0  0
  -27.9172   13.5156  -25.5161 C   0  0  0  0  0  0  0  0  0  0  0  0
  -26.6112   12.8421  -25.3080 C   0  0  0  0  0  0  0  0  0  0  0  0
  -26.3485   12.2244  -24.1125 C   0  0  0  0  0  0  0  0  0  0  0  0
  -25.1421   11.6046  -23.9256 C   0  0  0  0  0  0  0  0  0  0  0  0
  -24.1676   11.5770  -24.9067 C   0  0  0  0  0  0  0  0  0  0  0  0
  -24.4739   12.2087  -26.0890 C   0  0  0  0  0  0  0  0  0  0  0  0
  -25.6768   12.8399  -26.3067 C   0  0  0  0  0  0  0  0  0  0  0  0
  -27.8174   15.5140  -23.9353 N   0  0  0  0  0  0  0  0  0  0  0  0
  -27.5813   16.8116  -24.0277 N   0  0  0  0  0  0  0  0  0  0  0  0
  -27.8939   21.5830  -26.4719 C   0  0  0  0  0  0  0  0  0  0  0  0
  -27.6625   21.6284  -27.8763 O   0  0  0  0  0  0  0  0  0  0  0  0
  -28.5977   21.7790  -28.9181 C   0  0  0  0  0  0  0  0  0  0  0  0
  -28.0783   22.3187  -30.0611 C   0  0  0  0  0  0  0  0  0  0  0  0
  -28.9218   22.5070  -31.1461 C   0  0  0  0  0  0  0  0  0  0  0  0
  -30.2557   22.1535  -31.0621 C   0  0  0  0  0  0  0  0  0  0  0  0
  -30.8023   21.6057  -29.9148 C   0  0  0  0  0  0  0  0  0  0  0  0
  -29.9359   21.4269  -28.8409 C   0  0  0  0  0  0  0  0  0  0  0  0
  1  2  1  0
  2  3  1  0
  3  4  2  0
  3  5  1  0
  5  6  1  6
  6  7  1  0
  7  8  2  0
  7  9  1  0
  9 10  2  0
 10 11  1  0
 11 12  1  0
 12 13  1  0
 13 14  2  0
 14 15  1  0
 15 16  2  0
 16 17  1  0
 17 18  2  0
 11 19  2  0
 19 20  1  0
  5 21  1  0
 21 22  1  0
 22 23  1  0
 23 24  2  0
 24 25  1  0
 25 26  2  0
 26 27  1  0
 27 28  2  0
 28  2  1  0
 20  9  1  0
 28 23  1  0
 18 13  1  0
M  END
$$$$
