
     RDKit          3D

 33 36  0  0  0  0  0  0  0  0999 V2000
  -22.5291   20.5751  -41.4945 C   0  0  0  0  0  0  0  0  0  0  0  0
  -21.3665   20.7793  -40.5402 C   0  0  0  0  0  0  0  0  0  0  0  0
  -21.0644   19.4357  -39.9101 C   0  0  0  0  0  0  0  0  0  0  0  0
  -20.1962   21.2572  -41.3477 C   0  0  0  0  0  0  0  0  0  0  0  0
  -20.0414   22.7149  -41.3538 C   0  0  0  0  0  0  0  0  0  0  0  0
  -18.9842   23.2008  -41.8438 O   0  0  0  0  0  0  0  0  0  0  0  0
  -21.0429   23.6098  -40.8253 C   0  0  0  0  0  0  0  0  0  0  0  0
  -21.3818   24.9486  -41.0533 C   0  0  0  0  0  0  0  0  0  0  0  0
  -20.6789   25.8176  -42.0116 C   0  0  0  0  0  0  0  0  0  0  0  0
  -20.8459   27.1567  -41.7720 F   0  0  0  0  0  0  0  0  0  0  0  0
  -19.3329   25.4667  -41.9922 F   0  0  0  0  0  0  0  0  0  0  0  0
  -21.1478   25.4892  -43.2812 F   0  0  0  0  0  0  0  0  0  0  0  0
  -22.4173   25.1801  -40.2349 N   0  0  0  0  0  0  0  0  0  0  0  0
  -22.7296   24.1034  -39.5380 N   0  0  0  0  0  0  0  0  0  0  0  0
  -23.7911   24.0571  -38.5876 C   0  0  0  0  0  0  0  0  0  0  0  0
  -24.9315   23.4076  -38.9530 C   0  0  0  0  0  0  0  0  0  0  0  0
  -25.9565   23.3553  -38.0592 C   0  0  0  0  0  0  0  0  0  0  0  0
  -25.8572   23.9545  -36.7790 C   0  0  0  0  0  0  0  0  0  0  0  0
  -27.0739   23.9609  -36.0173 C   0  0  0  0  0  0  0  0  0  0  0  0
  -28.2656   24.5298  -36.6072 N   0  0  0  0  0  0  0  0  0  0  0  0
  -27.2048   23.5200  -34.8937 O   0  0  0  0  0  0  0  0  0  0  0  0
  -24.7393   24.6017  -36.3806 C   0  0  0  0  0  0  0  0  0  0  0  0
  -24.4617   25.0794  -35.1129 N   0  0  0  0  0  0  0  0  0  0  0  0
  -23.3909   25.1704  -34.2143 C   0  0  1  0  0  0  0  0  0  0  0  0
  -23.8322   25.8291  -32.9279 C   0  0  0  0  0  0  0  0  0  0  0  0
  -24.4280   24.8126  -31.9838 C   0  0  0  0  0  0  0  0  0  0  0  0
  -23.3190   24.0196  -31.3047 C   0  0  2  0  0  0  0  0  0  0  0  0
  -22.6946   24.8659  -30.4071 O   0  0  0  0  0  0  0  0  0  0  0  0
  -22.3293   23.7175  -32.4333 C   0  0  0  0  0  0  0  0  0  0  0  0
  -23.0419   23.7030  -33.7533 C   0  0  0  0  0  0  0  0  0  0  0  0
  -23.6944   24.6332  -37.3507 C   0  0  0  0  0  0  0  0  0  0  0  0
  -21.9091   23.1198  -39.8724 C   0  0  0  0  0  0  0  0  0  0  0  0
  -21.7716   21.7283  -39.4462 C   0  0  0  0  0  0  0  0  0  0  0  0
  1  2  1  0
  2  3  1  0
  2  4  1  0
  4  5  1  0
  5  6  2  0
  5  7  1  0
  7  8  1  0
  8  9  1  0
  9 10  1  0
  9 11  1  0
  9 12  1  0
  8 13  2  0
 13 14  1  0
 14 15  1  0
 15 16  2  0
 16 17  1  0
 17 18  2  0
 18 19  1  0
 19 20  1  0
 19 21  2  0
 18 22  1  0
 22 23  1  0
 24 23  1  6
 24 25  1  0
 25 26  1  0
 26 27  1  0
 27 28  1  1
 27 29  1  0
 29 30  1  0
 22 31  2  0
 14 32  1  0
 32 33  1  0
 33  2  1  0
 32  7  2  0
 31 15  1  0
 30 24  1  0
M  END
$$$$
