
     RDKit          3D

 26 29  0  0  0  0  0  0  0  0999 V2000
  -19.7435   35.9582  -23.5948 O   0  0  0  0  0  0  0  0  0  0  0  0
  -18.7891   36.2609  -22.8477 C   0  0  0  0  0  0  0  0  0  0  0  0
  -18.4106   37.6468  -22.7572 N   0  0  0  0  0  0  0  0  0  0  0  0
  -19.0356   38.5583  -23.6165 C   0  0  0  0  0  0  0  0  0  0  0  0
  -19.7411   37.9825  -24.7178 C   0  0  0  0  0  0  0  0  0  0  0  0
  -20.2919   38.7486  -25.7058 C   0  0  0  0  0  0  0  0  0  0  0  0
  -21.1628   38.0927  -27.0704 Cl  0  0  0  0  0  0  0  0  0  0  0  0
  -20.1563   40.1265  -25.6282 C   0  0  0  0  0  0  0  0  0  0  0  0
  -19.4891   40.6686  -24.5826 C   0  0  0  0  0  0  0  0  0  0  0  0
  -18.8988   39.8936  -23.5231 C   0  0  0  0  0  0  0  0  0  0  0  0
  -18.3655   40.6508  -22.4335 C   0  0  0  0  0  0  0  0  0  0  0  0
  -17.9112   41.9223  -22.7451 N   0  0  0  0  0  0  0  0  0  0  0  0
  -17.4410   42.7954  -21.8801 C   0  0  0  0  0  0  0  0  0  0  0  0
  -17.0054   44.0489  -22.3151 C   0  0  0  0  0  0  0  0  0  0  0  0
  -16.5129   44.9489  -21.4086 C   0  0  0  0  0  0  0  0  0  0  0  0
  -16.4440   44.6277  -20.0707 C   0  0  0  0  0  0  0  0  0  0  0  0
  -16.8777   43.3838  -19.6486 C   0  0  0  0  0  0  0  0  0  0  0  0
  -17.3746   42.4702  -20.5493 C   0  0  0  0  0  0  0  0  0  0  0  0
  -17.7935   41.2711  -20.1760 N   0  0  0  0  0  0  0  0  0  0  0  0
  -18.2882   40.3708  -21.1283 C   0  0  0  0  0  0  0  0  0  0  0  0
  -18.6968   39.1787  -20.6118 O   0  0  0  0  0  0  0  0  0  0  0  0
  -18.1081   35.2277  -22.1115 C   0  0  0  0  0  0  0  0  0  0  0  0
  -17.0501   35.2354  -21.2802 C   0  0  0  0  0  0  0  0  0  0  0  0
  -16.6072   34.1119  -20.7138 C   0  0  0  0  0  0  0  0  0  0  0  0
  -17.2717   32.9273  -21.0074 C   0  0  0  0  0  0  0  0  0  0  0  0
  -18.5767   33.4902  -22.1437 S   0  0  0  0  0  0  0  0  0  0  0  0
  1  2  2  0
  2  3  1  0
  3  4  1  0
  4  5  2  0
  5  6  1  0
  6  7  1  0
  6  8  2  0
  8  9  1  0
  9 10  2  0
 10 11  1  0
 11 12  2  0
 12 13  1  0
 13 14  2  0
 14 15  1  0
 15 16  2  0
 16 17  1  0
 17 18  2  0
 18 19  1  0
 19 20  2  0
 20 21  1  0
  2 22  1  0
 22 23  2  0
 23 24  1  0
 24 25  2  0
 25 26  1  0
 10  4  1  0
 20 11  1  0
 26 22  1  0
 18 13  1  0
M  END
$$$$
