
     RDKit          3D

  7  6  0  0  0  0  0  0  0  0999 V2000
  -28.1536   20.9863  -28.5287 N   0  0  0  0  0  0  0  0  0  0  0  0
  -27.8566   19.6486  -28.1539 C   0  0  0  0  0  0  0  0  0  0  0  0
  -28.8165   19.0696  -27.1579 C   0  0  0  0  0  0  0  0  0  0  0  0
  -29.8306   18.1875  -27.8276 C   0  0  0  0  0  0  0  0  0  0  0  0
  -30.8080   17.6059  -26.8586 C   0  0  0  0  0  0  0  0  0  0  0  0
  -31.8349   16.7220  -27.5458 C   0  0  0  0  0  0  0  0  0  0  0  0
  -32.7081   16.1435  -26.5567 N   0  0  0  0  0  0  0  0  0  0  0  0
  1  2  1  0
  2  3  1  0
  3  4  1  0
  4  5  1  0
  5  6  1  0
  6  7  1  0
M  END
$$$$
