
     RDKit          3D

 40 44  0  0  0  0  0  0  0  0999 V2000
  -29.7850   14.4660  -26.6415 O   0  0  0  0  0  0  0  0  0  0  0  0
  -30.7691   15.2613  -26.4225 C   0  0  0  0  0  0  0  0  0  0  0  0
  -31.8880   14.6681  -25.7904 N   0  0  0  0  0  0  0  0  0  0  0  0
  -32.9938   14.1345  -26.5609 C   0  0  2  0  0  0  0  0  0  0  0  0
  -34.3380   14.3677  -25.9733 C   0  0  0  0  0  0  0  0  0  0  0  0
  -34.5538   13.7184  -24.6450 C   0  0  0  0  0  0  0  0  0  0  0  0
  -34.5140   12.2432  -24.5871 C   0  0  1  0  0  0  0  0  0  0  0  0
  -35.3910   11.6027  -23.5850 C   0  0  0  0  0  0  0  0  0  0  0  0
  -34.9027   10.5058  -22.9052 C   0  0  0  0  0  0  0  0  0  0  0  0
  -35.6881    9.8672  -21.9369 C   0  0  0  0  0  0  0  0  0  0  0  0
  -36.9331   10.3040  -21.6453 C   0  0  0  0  0  0  0  0  0  0  0  0
  -37.4444   11.3993  -22.3155 C   0  0  0  0  0  0  0  0  0  0  0  0
  -38.6890   11.8318  -22.0266 F   0  0  0  0  0  0  0  0  0  0  0  0
  -36.6598   12.0276  -23.2736 C   0  0  0  0  0  0  0  0  0  0  0  0
  -37.1482   13.0916  -23.9264 F   0  0  0  0  0  0  0  0  0  0  0  0
  -34.7997   11.5865  -25.9099 C   0  0  0  0  0  0  0  0  0  0  0  0
  -33.5200   11.5803  -26.6312 N   0  0  0  0  0  0  0  0  0  0  0  0
  -33.0637   10.2727  -26.9970 C   0  0  0  0  0  0  0  0  0  0  0  0
  -33.8685    9.7524  -28.1905 C   0  0  0  0  0  0  0  0  0  0  0  0
  -35.0751   10.3960  -28.2965 F   0  0  0  0  0  0  0  0  0  0  0  0
  -33.0949    9.9691  -29.3111 F   0  0  0  0  0  0  0  0  0  0  0  0
  -34.1623    8.4068  -28.0117 F   0  0  0  0  0  0  0  0  0  0  0  0
  -32.7619   12.7096  -26.9521 C   0  0  0  0  0  0  0  0  0  0  0  0
  -31.7446   12.4727  -27.6752 O   0  0  0  0  0  0  0  0  0  0  0  0
  -30.6793   16.6444  -26.8172 N   0  0  0  0  0  0  0  0  0  0  0  0
  -31.3233   17.5886  -25.9206 C   0  0  0  0  0  0  0  0  0  0  0  0
  -30.6162   18.9085  -25.8734 C   0  0  0  0  0  0  0  0  0  0  0  0
  -29.2767   18.8419  -26.5702 C   0  0  0  0  0  0  0  0  0  0  0  0
  -28.5713   20.1054  -26.4538 N   0  0  0  0  0  0  0  0  0  0  0  0
  -27.6139   20.5913  -27.2465 C   0  0  0  0  0  0  0  0  0  0  0  0
  -27.1049   20.0425  -28.2652 O   0  0  0  0  0  0  0  0  0  0  0  0
  -27.2555   21.8086  -26.7752 N   0  0  0  0  0  0  0  0  0  0  0  0
  -27.9909   22.1141  -25.6678 C   0  0  0  0  0  0  0  0  0  0  0  0
  -28.0015   23.1969  -24.8562 N   0  0  0  0  0  0  0  0  0  0  0  0
  -28.8435   23.2494  -23.8091 C   0  0  0  0  0  0  0  0  0  0  0  0
  -29.6756   22.1706  -23.6056 C   0  0  0  0  0  0  0  0  0  0  0  0
  -29.6810   21.0613  -24.4112 C   0  0  0  0  0  0  0  0  0  0  0  0
  -28.8145   21.0258  -25.4793 C   0  0  0  0  0  0  0  0  0  0  0  0
  -29.4161   18.3635  -27.9818 C   0  0  0  0  0  0  0  0  0  0  0  0
  -29.9769   16.9916  -28.0166 C   0  0  0  0  0  0  0  0  0  0  0  0
  1  2  2  0
  2  3  1  0
  4  3  1  1
  4  5  1  0
  5  6  1  0
  6  7  1  0
  7  8  1  1
  8  9  2  0
  9 10  1  0
 10 11  2  0
 11 12  1  0
 12 13  1  0
 12 14  2  0
 14 15  1  0
  7 16  1  0
 16 17  1  0
 17 18  1  0
 18 19  1  0
 19 20  1  0
 19 21  1  0
 19 22  1  0
 17 23  1  0
 23 24  2  0
  2 25  1  0
 25 26  1  0
 26 27  1  0
 27 28  1  0
 28 29  1  0
 29 30  1  0
 30 31  2  0
 30 32  1  0
 32 33  1  0
 33 34  2  0
 34 35  1  0
 35 36  2  0
 36 37  1  0
 37 38  2  0
 28 39  1  0
 39 40  1  0
 23  4  1  0
 40 25  1  0
 14  8  1  0
 38 29  1  0
 38 33  1  0
M  END
$$$$
