
     RDKit          3D

 17 18  0  0  0  0  0  0  0  0999 V2000
  -10.2464   17.8149  -37.3279 F   0  0  0  0  0  0  0  0  0  0  0  0
  -11.0425   17.4680  -38.3984 C   0  0  0  0  0  0  0  0  0  0  0  0
  -10.7872   16.1899  -38.8551 F   0  0  0  0  0  0  0  0  0  0  0  0
  -10.8496   18.3334  -39.4693 F   0  0  0  0  0  0  0  0  0  0  0  0
  -12.4465   17.5313  -37.9742 C   0  0  0  0  0  0  0  0  0  0  0  0
  -12.8255   17.4553  -36.6581 C   0  0  0  0  0  0  0  0  0  0  0  0
  -14.1675   17.5237  -36.3553 C   0  0  0  0  0  0  0  0  0  0  0  0
  -15.1450   17.6650  -37.3144 C   0  0  0  0  0  0  0  0  0  0  0  0
  -16.5446   17.7385  -36.9572 N   0  0  0  0  0  0  0  0  0  0  0  0
  -17.5283   17.9467  -37.9662 C   0  0  0  0  0  0  0  0  0  0  0  0
  -18.8645   17.4361  -37.5287 C   0  0  0  0  0  0  0  0  0  0  0  0
  -19.1358   17.6024  -36.1316 N   0  0  0  0  0  0  0  0  0  0  0  0
  -18.1157   16.8120  -35.4241 C   0  0  0  0  0  0  0  0  0  0  0  0
  -16.8358   17.6002  -35.5607 C   0  0  0  0  0  0  0  0  0  0  0  0
  -14.7350   17.7359  -38.5930 N   0  0  0  0  0  0  0  0  0  0  0  0
  -13.4358   17.6724  -38.9229 C   0  0  0  0  0  0  0  0  0  0  0  0
  -12.9991   17.7748  -40.6316 Cl  0  0  0  0  0  0  0  0  0  0  0  0
  1  2  1  0
  2  3  1  0
  2  4  1  0
  2  5  1  0
  5  6  2  0
  6  7  1  0
  7  8  2  0
  8  9  1  0
  9 10  1  0
 10 11  1  0
 11 12  1  0
 12 13  1  0
 13 14  1  0
  8 15  1  0
 15 16  2  0
 16 17  1  0
 16  5  1  0
 14  9  1  0
M  END
$$$$
