
     RDKit          3D

 38 41  0  0  0  0  0  0  0  0999 V2000
  -22.1965   29.3283  -16.3443 C   0  0  0  0  0  0  0  0  0  0  0  0
  -21.9237   29.5026  -17.7643 N   0  0  0  0  0  0  0  0  0  0  0  0
  -21.5813   30.7850  -18.3060 C   0  0  0  0  0  0  0  0  0  0  0  0
  -21.4951   31.7588  -17.5317 O   0  0  0  0  0  0  0  0  0  0  0  0
  -21.3400   30.9689  -19.6945 N   0  0  0  0  0  0  0  0  0  0  0  0
  -20.6950   32.1185  -20.2271 C   0  0  0  0  0  0  0  0  0  0  0  0
  -21.2267   33.3767  -20.0360 C   0  0  0  0  0  0  0  0  0  0  0  0
  -20.6538   34.5207  -20.5231 C   0  0  0  0  0  0  0  0  0  0  0  0
  -19.4791   34.4552  -21.2506 C   0  0  0  0  0  0  0  0  0  0  0  0
  -18.9287   33.2151  -21.4550 C   0  0  0  0  0  0  0  0  0  0  0  0
  -19.5253   32.0619  -20.9523 C   0  0  0  0  0  0  0  0  0  0  0  0
  -17.6522   33.3420  -22.2572 C   0  0  0  0  0  0  0  0  0  0  0  0
  -17.2732   34.7899  -21.9585 C   0  0  0  0  0  0  0  0  0  0  0  0
  -18.6091   35.4442  -21.9148 C   0  0  1  0  0  0  0  0  0  0  0  0
  -19.0479   35.7805  -23.2043 O   0  0  0  0  0  0  0  0  0  0  0  0
  -18.5827   37.0513  -23.5038 C   0  0  0  0  0  0  0  0  0  0  0  0
  -18.4401   37.5546  -24.6689 O   0  0  0  0  0  0  0  0  0  0  0  0
  -18.2946   37.6871  -22.2584 N   0  0  0  0  0  0  0  0  0  0  0  0
  -17.7757   39.0544  -22.1101 C   0  0  0  0  0  0  0  0  0  0  0  0
  -18.6965   39.9898  -22.7607 C   0  0  0  0  0  0  0  0  0  0  0  0
  -19.7482   39.5594  -23.2515 O   0  0  0  0  0  0  0  0  0  0  0  0
  -18.4337   41.4266  -22.8615 N   0  0  0  0  0  0  0  0  0  0  0  0
  -18.7907   42.0623  -24.0715 C   0  0  0  0  0  0  0  0  0  0  0  0
  -19.7474   43.2003  -24.0207 C   0  0  0  0  0  0  0  0  0  0  0  0
  -21.0976   42.9591  -23.9264 C   0  0  0  0  0  0  0  0  0  0  0  0
  -21.9833   44.0292  -23.9305 C   0  0  0  0  0  0  0  0  0  0  0  0
  -21.5865   45.3439  -24.0253 C   0  0  0  0  0  0  0  0  0  0  0  0
  -22.4696   46.3767  -24.0270 F   0  0  0  0  0  0  0  0  0  0  0  0
  -20.2258   45.5360  -24.1186 C   0  0  0  0  0  0  0  0  0  0  0  0
  -19.3256   44.5065  -24.1179 C   0  0  0  0  0  0  0  0  0  0  0  0
  -17.8015   41.9897  -21.7244 C   0  0  1  0  0  0  0  0  0  0  0  0
  -17.8059   40.9514  -20.5752 C   0  0  0  0  0  0  0  0  0  0  0  0
  -16.3966   42.4594  -21.8314 C   0  0  0  0  0  0  0  0  0  0  0  0
  -15.8741   42.6935  -20.5223 F   0  0  0  0  0  0  0  0  0  0  0  0
  -16.1927   43.5937  -22.5419 F   0  0  0  0  0  0  0  0  0  0  0  0
  -15.5648   41.4194  -22.2613 F   0  0  0  0  0  0  0  0  0  0  0  0
  -18.6034   36.7547  -21.2301 C   0  0  0  0  0  0  0  0  0  0  0  0
  -18.8080   37.0783  -20.0369 O   0  0  0  0  0  0  0  0  0  0  0  0
  1  2  1  0
  2  3  1  0
  3  4  2  0
  3  5  1  0
  5  6  1  0
  6  7  2  0
  7  8  1  0
  8  9  2  0
  9 10  1  0
 10 11  2  0
 10 12  1  0
 12 13  1  0
 14 13  1  6
 14 15  1  0
 15 16  1  0
 16 17  2  0
 16 18  1  0
 18 19  1  0
 19 20  1  0
 20 21  2  0
 20 22  1  0
 22 23  1  0
 23 24  1  0
 24 25  2  0
 25 26  1  0
 26 27  2  0
 27 28  1  0
 27 29  1  0
 29 30  2  0
 22 31  1  0
 31 32  1  1
 31 33  1  0
 33 34  1  0
 33 35  1  0
 33 36  1  0
 18 37  1  0
 37 38  2  0
 11  6  1  0
 37 14  1  0
 14  9  1  0
 30 24  1  0
M  END
$$$$
