
     RDKit          3D

 16 17  0  0  0  0  0  0  0  0999 V2000
   -2.3213   15.8941  -18.4766 C   0  0  0  0  0  0  0  0  0  0  0  0
   -1.3445   17.0323  -18.6852 C   0  0  0  0  0  0  0  0  0  0  0  0
   -0.0757   16.5154  -19.3159 C   0  0  0  0  0  0  0  0  0  0  0  0
    0.8330   17.6362  -19.6563 C   0  0  0  0  0  0  0  0  0  0  0  0
    2.2050   17.5662  -19.6031 C   0  0  0  0  0  0  0  0  0  0  0  0
    3.0080   18.6619  -19.9397 C   0  0  0  0  0  0  0  0  0  0  0  0
    2.4289   19.8404  -20.3338 C   0  0  0  0  0  0  0  0  0  0  0  0
    1.0657   19.9296  -20.3930 C   0  0  0  0  0  0  0  0  0  0  0  0
    0.2935   18.8408  -20.0579 C   0  0  0  0  0  0  0  0  0  0  0  0
   -0.3203   15.7469  -20.5546 C   0  0  0  0  0  0  0  0  0  0  0  0
   -0.8715   16.3484  -21.5113 O   0  0  0  0  0  0  0  0  0  0  0  0
    0.0403   14.3982  -20.6801 N   0  0  0  0  0  0  0  0  0  0  0  0
    0.1394   13.5674  -19.5090 C   0  0  0  0  0  0  0  0  0  0  0  0
    0.5273   14.3030  -18.3298 N   0  0  0  0  0  0  0  0  0  0  0  0
    0.6309   15.7066  -18.2876 C   0  0  0  0  0  0  0  0  0  0  0  0
    1.3202   16.2334  -17.3783 O   0  0  0  0  0  0  0  0  0  0  0  0
  1  2  1  0
  2  3  1  0
  3  4  1  0
  4  5  2  0
  5  6  1  0
  6  7  2  0
  7  8  1  0
  8  9  2  0
  3 10  1  0
 10 11  2  0
 10 12  1  0
 12 13  1  0
 13 14  1  0
 14 15  1  0
 15 16  2  0
 15  3  1  0
  9  4  1  0
M  END
$$$$
