
     RDKit          3D

 33 35  0  0  0  0  0  0  0  0999 V2000
  -32.7295   12.8008  -25.3159 C   0  0  0  0  0  0  0  0  0  0  0  0
  -33.1292   14.2370  -25.0372 C   0  0  0  0  0  0  0  0  0  0  0  0
  -32.1979   15.0636  -25.7104 O   0  0  0  0  0  0  0  0  0  0  0  0
  -32.2487   16.4371  -25.6865 C   0  0  0  0  0  0  0  0  0  0  0  0
  -33.1729   17.0033  -25.0655 O   0  0  0  0  0  0  0  0  0  0  0  0
  -31.2370   17.2082  -26.3762 C   0  0  0  0  0  0  0  0  0  0  0  0
  -30.2607   17.9081  -25.6546 C   0  0  0  0  0  0  0  0  0  0  0  0
  -29.2713   18.6534  -26.2629 C   0  0  0  0  0  0  0  0  0  0  0  0
  -28.2999   19.3457  -25.4713 C   0  0  0  0  0  0  0  0  0  0  0  0
  -27.5171   19.9281  -24.8288 N   0  0  0  0  0  0  0  0  0  0  0  0
  -29.2755   18.6872  -27.6360 C   0  0  0  0  0  0  0  0  0  0  0  0
  -28.2748   19.4432  -28.3390 N   0  0  0  0  0  0  0  0  0  0  0  0
  -27.0724   18.8703  -28.8877 C   0  0  0  0  0  0  0  0  0  0  0  0
  -26.5944   19.8799  -29.9435 C   0  0  0  0  0  0  0  0  0  0  0  0
  -26.1170   21.0736  -29.1610 C   0  0  0  0  0  0  0  0  0  0  0  0
  -25.3660   22.0268  -30.0173 C   0  0  0  0  0  0  0  0  0  0  0  0
  -24.3263   21.6292  -30.5846 O   0  0  0  0  0  0  0  0  0  0  0  0
  -25.7806   23.3643  -30.2158 N   0  0  0  0  0  0  0  0  0  0  0  0
  -26.3176   23.8348  -31.7851 S   0  0  0  0  0  6  0  0  0  0  0  0
  -27.6953   23.3308  -32.0641 O   0  0  0  0  0  0  0  0  0  0  0  0
  -26.3614   25.3316  -31.8560 O   0  0  0  0  0  0  0  0  0  0  0  0
  -25.1432   23.2071  -32.9670 C   0  0  0  0  0  0  0  0  0  0  0  0
  -25.6213   23.3604  -34.3441 C   0  0  0  0  0  0  0  0  0  0  0  0
  -24.9687   24.1670  -35.2461 C   0  0  0  0  0  0  0  0  0  0  0  0
  -25.4098   24.3220  -36.5336 C   0  0  0  0  0  0  0  0  0  0  0  0
  -26.5342   23.6495  -36.9235 C   0  0  0  0  0  0  0  0  0  0  0  0
  -27.2107   22.8349  -36.0473 C   0  0  0  0  0  0  0  0  0  0  0  0
  -26.7501   22.6915  -34.7532 C   0  0  0  0  0  0  0  0  0  0  0  0
  -27.2501   21.7024  -28.4432 C   0  0  0  0  0  0  0  0  0  0  0  0
  -28.4874   20.8602  -28.5250 C   0  0  0  0  0  0  0  0  0  0  0  0
  -30.2155   18.0137  -28.3347 N   0  0  0  0  0  0  0  0  0  0  0  0
  -31.1946   17.2769  -27.7472 C   0  0  0  0  0  0  0  0  0  0  0  0
  -32.1907   16.5691  -28.5943 C   0  0  0  0  0  0  0  0  0  0  0  0
  1  2  1  0
  2  3  1  0
  3  4  1  0
  4  5  2  0
  4  6  1  0
  6  7  2  0
  7  8  1  0
  8  9  1  0
  9 10  3  0
  8 11  2  0
 11 12  1  0
 12 13  1  0
 13 14  1  0
 14 15  1  0
 15 16  1  0
 16 17  2  0
 16 18  1  0
 18 19  1  0
 19 20  2  0
 19 21  2  0
 19 22  1  0
 22 23  1  0
 23 24  2  0
 24 25  1  0
 25 26  2  0
 26 27  1  0
 27 28  2  0
 15 29  1  0
 29 30  1  0
 11 31  1  0
 31 32  2  0
 32 33  1  0
 32  6  1  0
 30 12  1  0
 28 23  1  0
M  END
$$$$
