
     RDKit          3D

 26 28  0  0  0  0  0  0  0  0999 V2000
  -23.9044   25.5746  -34.3087 C   0  0  0  0  0  0  0  0  0  0  0  0
  -25.0845   26.5002  -34.2099 C   0  0  0  0  0  0  0  0  0  0  0  0
  -25.0814   27.4170  -35.4064 C   0  0  0  0  0  0  0  0  0  0  0  0
  -26.4168   25.7421  -34.2399 C   0  0  0  0  0  0  0  0  0  0  0  0
  -26.3826   24.8342  -33.0005 C   0  0  0  0  0  0  0  0  0  0  0  0
  -25.6418   25.2960  -31.9948 C   0  0  0  0  0  0  0  0  0  0  0  0
  -25.7846   24.0420  -30.7732 S   0  0  0  0  0  0  0  0  0  0  0  0
  -26.8460   22.9622  -31.7011 C   0  0  0  0  0  0  0  0  0  0  0  0
  -27.3473   21.7030  -31.2646 N   0  0  0  0  0  0  0  0  0  0  0  0
  -27.1866   21.3106  -29.9114 C   0  0  0  0  0  0  0  0  0  0  0  0
  -26.1056   22.1787  -28.9975 S   0  0  0  0  0  0  0  0  0  0  0  0
  -27.8444   20.2404  -29.2804 N   0  0  0  0  0  0  0  0  0  0  0  0
  -27.3717   19.5047  -28.1657 C   0  0  0  0  0  0  0  0  0  0  0  0
  -26.5022   20.0164  -27.4306 O   0  0  0  0  0  0  0  0  0  0  0  0
  -27.8827   18.1519  -27.8612 C   0  0  0  0  0  0  0  0  0  0  0  0
  -27.4562   17.4075  -26.7950 C   0  0  0  0  0  0  0  0  0  0  0  0
  -28.0206   16.1622  -26.5899 C   0  0  0  0  0  0  0  0  0  0  0  0
  -28.9802   15.6377  -27.3958 C   0  0  0  0  0  0  0  0  0  0  0  0
  -29.4127   16.3988  -28.4836 C   0  0  0  0  0  0  0  0  0  0  0  0
  -28.8650   17.6395  -28.7048 C   0  0  0  0  0  0  0  0  0  0  0  0
  -27.0160   23.6430  -32.8887 C   0  0  0  0  0  0  0  0  0  0  0  0
  -27.8768   23.0048  -33.9313 C   0  0  0  0  0  0  0  0  0  0  0  0
  -28.1300   23.5618  -35.0168 O   0  0  0  0  0  0  0  0  0  0  0  0
  -28.4422   21.7449  -33.7452 O   0  0  0  0  0  0  0  0  0  0  0  0
  -24.8831   26.5639  -31.9150 C   0  0  0  0  0  0  0  0  0  0  0  0
  -25.0488   27.2805  -33.0561 O   0  0  0  0  0  0  0  0  0  0  0  0
  1  2  1  0
  2  3  1  0
  2  4  1  0
  4  5  1  0
  5  6  2  0
  6  7  1  0
  7  8  1  0
  8  9  1  0
  9 10  1  0
 10 11  2  0
 10 12  1  0
 12 13  1  0
 13 14  2  0
 13 15  1  0
 15 16  2  0
 16 17  1  0
 17 18  2  0
 18 19  1  0
 19 20  2  0
  8 21  2  0
 21 22  1  0
 22 23  2  0
 22 24  1  0
  6 25  1  0
 25 26  1  0
 26  2  1  0
 21  5  1  0
 20 15  1  0
M  END
$$$$
