
     RDKit          3D

 27 29  0  0  0  0  0  0  0  0999 V2000
    5.5124   17.8880  -20.5069 C   0  0  0  0  0  0  0  0  0  0  0  0
    4.7704   18.9618  -19.9811 O   0  0  0  0  0  0  0  0  0  0  0  0
    5.1995   20.2613  -19.9061 C   0  0  0  0  0  0  0  0  0  0  0  0
    6.3602   20.5199  -20.3457 O   0  0  0  0  0  0  0  0  0  0  0  0
    4.4155   21.3476  -19.3601 C   0  0  0  0  0  0  0  0  0  0  0  0
    4.8901   22.6376  -19.3061 C   0  0  0  0  0  0  0  0  0  0  0  0
    4.1263   23.6485  -18.7836 C   0  0  0  0  0  0  0  0  0  0  0  0
    2.8507   23.3992  -18.2935 C   0  0  0  0  0  0  0  0  0  0  0  0
    2.3768   22.1191  -18.3459 C   0  0  0  0  0  0  0  0  0  0  0  0
    3.1625   21.0941  -18.8804 C   0  0  0  0  0  0  0  0  0  0  0  0
    2.5537   19.7697  -18.8845 C   0  0  0  0  0  0  0  0  0  0  0  0
    2.7432   18.9570  -17.7898 C   0  0  0  0  0  0  0  0  0  0  0  0
    3.4736   19.3199  -16.6902 C   0  0  0  0  0  0  0  0  0  0  0  0
    3.6074   18.4348  -15.6394 C   0  0  0  0  0  0  0  0  0  0  0  0
    3.0298   17.1826  -15.6474 C   0  0  0  0  0  0  0  0  0  0  0  0
    3.1913   16.3850  -14.6206 N   0  0  0  0  0  0  0  0  0  0  0  0
    2.2890   16.7887  -16.7397 C   0  0  0  0  0  0  0  0  0  0  0  0
    2.1156   17.6401  -17.8374 C   0  0  0  0  0  0  0  0  0  0  0  0
    1.4213   17.2862  -18.8747 O   0  0  0  0  0  0  0  0  0  0  0  0
    1.2175   18.0360  -19.9412 C   0  0  0  0  0  0  0  0  0  0  0  0
    0.4627   17.5735  -20.9993 C   0  0  0  0  0  0  0  0  0  0  0  0
    0.2544   18.3632  -22.1100 C   0  0  0  0  0  0  0  0  0  0  0  0
   -0.5206   17.9171  -23.2224 N   0  0  0  0  0  0  0  0  0  0  0  0
    0.8353   19.6273  -22.1063 C   0  0  0  0  0  0  0  0  0  0  0  0
    1.5885   20.0847  -21.0468 C   0  0  0  0  0  0  0  0  0  0  0  0
    1.7959   19.2894  -19.9327 C   0  0  0  0  0  0  0  0  0  0  0  0
    3.5032   19.4006  -19.0092 Cl  0  0  0  0  0  0  0  0  0  0  0  0
  1  2  1  0
  2  3  1  0
  3  4  2  0
  3  5  1  0
  5  6  2  0
  6  7  1  0
  7  8  2  0
  8  9  1  0
  9 10  2  0
 10 11  1  0
 11 12  2  0
 12 13  1  0
 13 14  2  0
 14 15  1  0
 15 16  2  0
 15 17  1  0
 17 18  2  0
 18 19  1  0
 19 20  1  0
 20 21  2  0
 21 22  1  0
 22 23  1  0
 22 24  2  0
 24 25  1  0
 25 26  2  0
 10  5  1  0
 26 11  1  0
 18 12  1  0
 26 20  1  0
M  END
$$$$
