
     RDKit          3D

 26 30  0  0  0  0  0  0  0  0999 V2000
  -11.4233   16.0162  -42.5800 C   0  0  0  0  0  0  0  0  0  0  0  0
  -10.9444   17.4289  -42.3599 C   0  0  2  0  0  0  0  0  0  0  0  0
  -10.0742   17.5312  -41.1702 C   0  0  0  0  0  0  0  0  0  0  0  0
  -10.6625   17.9853  -39.8944 C   0  0  0  0  0  0  0  0  0  0  0  0
  -12.1171   18.0455  -39.7259 C   0  0  1  0  0  0  0  0  0  0  0  0
  -12.9115   17.7009  -40.9978 C   0  0  1  0  0  0  0  0  0  0  0  0
  -14.3162   18.1641  -40.8038 C   0  0  0  0  0  0  0  0  0  0  0  0
  -14.8647   17.4200  -39.6348 C   0  0  0  0  0  0  0  0  0  0  0  0
  -14.1093   16.9994  -38.6488 C   0  0  0  0  0  0  0  0  0  0  0  0
  -14.7490   16.2675  -37.5301 C   0  0  0  0  0  0  0  0  0  0  0  0
  -14.4493   17.0246  -36.2548 C   0  0  1  0  0  0  0  0  0  0  0  0
  -14.8737   16.2372  -35.1947 O   0  0  0  0  0  0  0  0  0  0  0  0
  -12.9685   17.2913  -36.0974 C   0  0  0  0  0  0  0  0  0  0  0  0
  -12.3942   17.9823  -37.2903 C   0  0  0  0  0  0  0  0  0  0  0  0
  -12.6520   17.2145  -38.5920 C   0  0  2  0  0  0  0  0  0  0  0  0
  -11.9681   15.8677  -38.5163 C   0  0  0  0  0  0  0  0  0  0  0  0
  -12.1286   18.3653  -42.0559 C   0  0  2  0  0  0  0  0  0  0  0  0
  -12.7208   18.5284  -43.3751 C   0  0  0  0  0  0  0  0  0  0  0  0
  -11.4689   18.6145  -44.2136 C   0  0  0  0  0  0  0  0  0  0  0  0
  -10.4654   17.9813  -43.6232 C   0  0  0  0  0  0  0  0  0  0  0  0
   -9.1341   17.9326  -44.2591 C   0  0  0  0  0  0  0  0  0  0  0  0
   -9.0317   17.6562  -45.6001 C   0  0  0  0  0  0  0  0  0  0  0  0
   -7.7485   17.5912  -46.1477 C   0  0  0  0  0  0  0  0  0  0  0  0
   -6.6344   17.7978  -45.3689 C   0  0  0  0  0  0  0  0  0  0  0  0
   -6.7336   18.0670  -44.0667 N   0  0  0  0  0  0  0  0  0  0  0  0
   -7.9622   18.1339  -43.5178 C   0  0  0  0  0  0  0  0  0  0  0  0
  2  1  1  6
  2  3  1  0
  3  4  1  0
  5  4  1  6
  5  6  1  0
  6  7  1  1
  7  8  1  0
  8  9  2  0
  9 10  1  0
 10 11  1  0
 11 12  1  1
 11 13  1  0
 13 14  1  0
 14 15  1  0
 15 16  1  1
  6 17  1  0
 17 18  1  6
 18 19  1  0
 19 20  2  0
 20 21  1  0
 21 22  2  0
 22 23  1  0
 23 24  2  0
 24 25  1  0
 25 26  2  0
 17  2  1  0
 26 21  1  0
 20  2  1  0
 15  5  1  0
 15  9  1  0
M  END
$$$$
