
     RDKit          3D

 28 29  0  0  0  0  0  0  0  0999 V2000
  -15.1400    3.6351  -32.8862 C   0  0  0  0  0  0  0  0  0  0  0  0
  -14.9370    2.2595  -33.1336 O   0  0  0  0  0  0  0  0  0  0  0  0
  -14.7830    1.2821  -32.1929 C   0  0  0  0  0  0  0  0  0  0  0  0
  -14.4154    1.6416  -31.0472 O   0  0  0  0  0  0  0  0  0  0  0  0
  -15.0295   -0.1500  -32.4743 C   0  0  0  0  0  0  0  0  0  0  0  0
  -14.6039   -1.0861  -31.6732 C   0  0  0  0  0  0  0  0  0  0  0  0
  -13.8892   -0.6933  -30.5100 C   0  0  0  0  0  0  0  0  0  0  0  0
  -13.3103   -0.3591  -29.5319 N   0  0  0  0  0  0  0  0  0  0  0  0
  -14.8227   -2.4813  -31.8986 N   0  0  0  0  0  0  0  0  0  0  0  0
  -15.5490   -2.8223  -33.0721 C   0  0  0  0  0  0  0  0  0  0  0  0
  -15.7874   -4.2732  -33.3227 C   0  0  0  0  0  0  0  0  0  0  0  0
  -15.9977   -1.9247  -33.9084 C   0  0  0  0  0  0  0  0  0  0  0  0
  -16.7481   -2.3390  -35.1122 C   0  0  0  0  0  0  0  0  0  0  0  0
  -17.8170   -3.0025  -34.9895 O   0  0  0  0  0  0  0  0  0  0  0  0
  -16.3565   -2.0471  -36.3838 O   0  0  0  0  0  0  0  0  0  0  0  0
  -17.1193   -1.3788  -37.3648 C   0  0  0  0  0  0  0  0  0  0  0  0
  -18.3288   -0.7948  -36.6296 C   0  0  0  0  0  0  0  0  0  0  0  0
  -16.3570   -0.3175  -38.0815 C   0  0  0  0  0  0  0  0  0  0  0  0
  -15.7755   -0.4799  -33.7014 C   0  0  0  0  0  0  0  0  0  0  0  0
  -17.1084    0.2117  -33.7417 C   0  0  0  0  0  0  0  0  0  0  0  0
  -17.3556    1.1228  -34.7407 C   0  0  0  0  0  0  0  0  0  0  0  0
  -18.5630    1.8022  -34.8342 C   0  0  0  0  0  0  0  0  0  0  0  0
  -19.5408    1.5432  -33.8827 C   0  0  0  0  0  0  0  0  0  0  0  0
  -19.3034    0.6239  -32.8670 C   0  0  0  0  0  0  0  0  0  0  0  0
  -20.2985    0.3674  -31.9046 N   0  0  0  0  0  4  0  0  0  0  0  0
  -20.6497   -0.7982  -31.6733 O   0  0  0  0  0  0  0  0  0  0  0  0
  -20.8790    1.3983  -31.2248 O   0  0  0  0  0  1  0  0  0  0  0  0
  -18.0827   -0.0400  -32.8021 C   0  0  0  0  0  0  0  0  0  0  0  0
  1  2  1  0
  2  3  1  0
  3  4  2  0
  3  5  1  0
  5  6  2  0
  6  7  1  0
  7  8  3  0
  6  9  1  0
  9 10  1  0
 10 11  1  0
 10 12  2  0
 12 13  1  0
 13 14  2  0
 13 15  1  0
 15 16  1  0
 16 17  1  0
 16 18  1  0
 12 19  1  0
 19 20  1  0
 20 21  2  0
 21 22  1  0
 22 23  2  0
 23 24  1  0
 24 25  1  0
 25 26  2  0
 25 27  1  0
 24 28  2  0
 19  5  1  0
 28 20  1  0
M  CHG  2  25   1  27  -1
M  END
$$$$
