
     RDKit          3D

 26 28  0  0  0  0  0  0  0  0999 V2000
  -15.0698   18.0107  -34.0095 C   0  0  0  0  0  0  0  0  0  0  0  0
  -15.2293   16.5643  -34.3684 C   0  0  0  0  0  0  0  0  0  0  0  0
  -15.7450   15.7860  -33.2683 N   0  0  0  0  0  0  0  0  0  0  0  0
  -17.1007   15.8886  -32.8742 C   0  0  0  0  0  0  0  0  0  0  0  0
  -17.9664   16.6244  -33.5415 C   0  0  0  0  0  0  0  0  0  0  0  0
  -19.3677   16.7680  -33.1834 C   0  0  0  0  0  0  0  0  0  0  0  0
  -19.7971   17.7979  -32.3384 C   0  0  0  0  0  0  0  0  0  0  0  0
  -21.1179   18.0014  -32.0272 C   0  0  0  0  0  0  0  0  0  0  0  0
  -22.0527   17.1640  -32.5647 C   0  0  0  0  0  0  0  0  0  0  0  0
  -23.3792   17.3738  -32.2769 C   0  0  0  0  0  0  0  0  0  0  0  0
  -24.3014   16.5243  -32.8540 C   0  0  0  0  0  0  0  0  0  0  0  0
  -23.9242   15.4965  -33.6913 C   0  0  0  0  0  0  0  0  0  0  0  0
  -22.5683   15.2941  -33.9738 C   0  0  0  0  0  0  0  0  0  0  0  0
  -21.6107   16.1329  -33.4090 C   0  0  0  0  0  0  0  0  0  0  0  0
  -20.3288   15.9590  -33.6917 N   0  0  0  0  0  4  0  0  0  0  0  0
  -19.8772   14.8730  -34.5299 C   0  0  0  0  0  0  0  0  0  0  0  0
  -19.8425   15.1946  -35.9906 C   0  0  0  0  0  0  0  0  0  0  0  0
  -17.5428   15.1093  -31.7041 C   0  0  0  0  0  0  0  0  0  0  0  0
  -16.7512   14.3257  -31.0098 C   0  0  0  0  0  0  0  0  0  0  0  0
  -15.3511   14.2270  -31.4286 C   0  0  0  0  0  0  0  0  0  0  0  0
  -14.5349   13.4000  -30.6795 C   0  0  0  0  0  0  0  0  0  0  0  0
  -13.2061   13.2417  -30.9852 C   0  0  0  0  0  0  0  0  0  0  0  0
  -12.7169   13.9341  -32.0613 C   0  0  0  0  0  0  0  0  0  0  0  0
  -13.5534   14.7695  -32.8119 C   0  0  0  0  0  0  0  0  0  0  0  0
  -14.8716   14.9451  -32.5331 C   0  0  0  0  0  0  0  0  0  0  0  0
  -18.2041   15.7845  -33.1203 I   0  0  0  0  0 15  0  0  0  0  0  0
  1  2  1  0
  2  3  1  0
  3  4  1  0
  4  5  2  0
  5  6  1  0
  6  7  2  0
  7  8  1  0
  8  9  2  0
  9 10  1  0
 10 11  2  0
 11 12  1  0
 12 13  2  0
 13 14  1  0
 14 15  2  0
 15 16  1  0
 16 17  1  0
  4 18  1  0
 18 19  2  0
 19 20  1  0
 20 21  2  0
 21 22  1  0
 22 23  2  0
 23 24  1  0
 24 25  2  0
 25  3  1  0
 15  6  1  0
 25 20  1  0
 14  9  1  0
M  CHG  2  15   1  26  -1
M  END
$$$$
