
     RDKit          3D

 26 28  0  0  0  0  0  0  0  0999 V2000
  -21.0733   34.1528  -21.5830 C   0  0  0  0  0  0  0  0  0  0  0  0
  -20.0479   35.2299  -21.6965 C   0  0  0  0  0  0  0  0  0  0  0  0
  -19.3352   35.2800  -22.9960 C   0  0  1  0  0  0  0  0  0  0  0  0
  -18.8268   36.6567  -23.3571 C   0  0  1  0  0  0  0  0  0  0  0  0
  -19.7783   37.7798  -23.1756 C   0  0  0  0  0  0  0  0  0  0  0  0
  -19.3383   39.0087  -22.8515 O   0  0  0  0  0  0  0  0  0  0  0  0
  -18.7631   39.6946  -21.8546 C   0  0  0  0  0  0  0  0  0  0  0  0
  -18.4961   39.1199  -20.6708 N   0  0  0  0  0  0  0  0  0  0  0  0
  -17.9253   39.7642  -19.6540 C   0  0  0  0  0  0  0  0  0  0  0  0
  -17.5804   41.0906  -19.7973 C   0  0  0  0  0  0  0  0  0  0  0  0
  -17.8386   41.7155  -20.9982 C   0  0  0  0  0  0  0  0  0  0  0  0
  -17.4868   43.0499  -21.1294 C   0  0  0  0  0  0  0  0  0  0  0  0
  -17.7234   43.7341  -22.3201 C   0  0  0  0  0  0  0  0  0  0  0  0
  -17.3475   45.1274  -22.4339 C   0  0  0  0  0  0  0  0  0  0  0  0
  -18.1356   46.0082  -23.2217 N   0  0  0  0  0  0  0  0  0  0  0  0
  -16.3433   45.6223  -21.8666 O   0  0  0  0  0  0  0  0  0  0  0  0
  -18.3143   43.0434  -23.3534 C   0  0  0  0  0  0  0  0  0  0  0  0
  -18.5600   43.7000  -24.5463 O   0  0  0  0  0  0  0  0  0  0  0  0
  -19.1627   43.0304  -25.6513 C   0  0  0  0  0  0  0  0  0  0  0  0
  -18.6655   41.6978  -23.2114 C   0  0  0  0  0  0  0  0  0  0  0  0
  -18.4253   41.0504  -22.0408 C   0  0  0  0  0  0  0  0  0  0  0  0
  -17.7722   36.7952  -22.3215 N   0  0  0  0  0  0  0  0  0  0  0  0
  -17.2402   35.4951  -22.0633 C   0  0  0  0  0  0  0  0  0  0  0  0
  -16.3194   35.2892  -21.2342 O   0  0  0  0  0  0  0  0  0  0  0  0
  -17.9837   34.5674  -22.9373 C   0  0  1  0  0  0  0  0  0  0  0  0
  -18.0616   33.2988  -22.4977 F   0  0  0  0  0  0  0  0  0  0  0  0
  1  2  1  0
  3  2  1  1
  3  4  1  0
  4  5  1  1
  5  6  1  0
  6  7  1  0
  7  8  2  0
  8  9  1  0
  9 10  2  0
 10 11  1  0
 11 12  2  0
 12 13  1  0
 13 14  1  0
 14 15  1  0
 14 16  2  0
 13 17  2  0
 17 18  1  0
 18 19  1  0
 17 20  1  0
 20 21  2  0
  4 22  1  0
 22 23  1  0
 23 24  2  0
 23 25  1  0
 25 26  1  1
 25  3  1  0
 21  7  1  0
 21 11  1  0
M  END
$$$$
