
     RDKit          3D

 29 31  0  0  0  0  0  0  0  0999 V2000
  -19.6902   45.4414  -25.7993 C   0  0  0  0  0  0  0  0  0  0  0  0
  -18.2494   45.4346  -25.4104 C   0  0  0  0  0  0  0  0  0  0  0  0
  -17.6613   44.0994  -25.8421 C   0  0  0  0  0  0  0  0  0  0  0  0
  -18.0213   45.7047  -23.9854 C   0  0  0  0  0  0  0  0  0  0  0  0
  -17.8905   44.7346  -23.0125 C   0  0  0  0  0  0  0  0  0  0  0  0
  -17.6773   45.0297  -21.6825 C   0  0  0  0  0  0  0  0  0  0  0  0
  -17.5561   43.9989  -20.7630 O   0  0  0  0  0  0  0  0  0  0  0  0
  -17.8826   42.6849  -21.0553 C   0  0  0  0  0  0  0  0  0  0  0  0
  -19.1723   42.2082  -20.9288 C   0  0  0  0  0  0  0  0  0  0  0  0
  -20.3941   43.3318  -20.3804 Cl  0  0  0  0  0  0  0  0  0  0  0  0
  -19.4498   40.8942  -21.2312 C   0  0  0  0  0  0  0  0  0  0  0  0
  -18.4841   40.0041  -21.6651 C   0  0  0  0  0  0  0  0  0  0  0  0
  -18.7967   38.6391  -21.9757 N   0  0  0  0  0  0  0  0  0  0  0  0
  -18.1301   37.6198  -21.4525 N   0  0  0  0  0  0  0  0  0  0  0  0
  -18.4630   36.3398  -21.7756 C   0  0  0  0  0  0  0  0  0  0  0  0
  -17.7575   35.2217  -21.2233 C   0  0  0  0  0  0  0  0  0  0  0  0
  -17.1756   34.3221  -20.7929 N   0  0  0  0  0  0  0  0  0  0  0  0
  -19.5056   36.1592  -22.6552 C   0  0  0  0  0  0  0  0  0  0  0  0
  -19.8376   34.9850  -22.9737 O   0  0  0  0  0  0  0  0  0  0  0  0
  -20.1648   37.1864  -23.1719 N   0  0  0  0  0  0  0  0  0  0  0  0
  -19.8055   38.4392  -22.8276 C   0  0  0  0  0  0  0  0  0  0  0  0
  -20.4375   39.4167  -23.3232 O   0  0  0  0  0  0  0  0  0  0  0  0
  -17.1933   40.4907  -21.7890 C   0  0  0  0  0  0  0  0  0  0  0  0
  -16.8968   41.8208  -21.4860 C   0  0  0  0  0  0  0  0  0  0  0  0
  -15.2386   42.4126  -21.6542 Cl  0  0  0  0  0  0  0  0  0  0  0  0
  -17.5978   46.3289  -21.3484 N   0  0  0  0  0  0  0  0  0  0  0  0
  -17.7208   47.2690  -22.2671 N   0  0  0  0  0  0  0  0  0  0  0  0
  -17.9291   47.0231  -23.5725 C   0  0  0  0  0  0  0  0  0  0  0  0
  -18.0308   47.9857  -24.3579 O   0  0  0  0  0  0  0  0  0  0  0  0
  1  2  1  0
  2  3  1  0
  2  4  1  0
  4  5  2  0
  5  6  1  0
  6  7  1  0
  7  8  1  0
  8  9  2  0
  9 10  1  0
  9 11  1  0
 11 12  2  0
 12 13  1  0
 13 14  1  0
 14 15  2  0
 15 16  1  0
 16 17  3  0
 15 18  1  0
 18 19  2  0
 18 20  1  0
 20 21  1  0
 21 22  2  0
 12 23  1  0
 23 24  2  0
 24 25  1  0
  6 26  2  0
 26 27  1  0
 27 28  1  0
 28 29  2  0
 28  4  1  0
 24  8  1  0
 21 13  1  0
M  END
$$$$
