
     RDKit          3D

 35 39  0  0  0  0  0  0  0  0999 V2000
  -20.3655   40.6568  -22.1414 C   0  0  0  0  0  0  0  0  0  0  0  0
  -18.9515   40.6290  -22.1164 N   0  0  0  0  0  0  0  0  0  0  0  0
  -18.2441   40.9078  -23.3026 C   0  0  0  0  0  0  0  0  0  0  0  0
  -18.5356   42.1905  -23.9935 C   0  0  2  0  0  0  0  0  0  0  0  0
  -19.0660   43.2234  -23.0536 C   0  0  0  0  0  0  0  0  0  0  0  0
  -19.3771   44.3899  -23.7786 O   0  0  0  0  0  0  0  0  0  0  0  0
  -18.7916   44.3852  -25.0322 C   0  0  0  0  0  0  0  0  0  0  0  0
  -19.1599   43.2062  -25.8801 C   0  0  0  0  0  0  0  0  0  0  0  0
  -19.3369   42.0388  -25.1218 O   0  0  0  0  0  0  0  0  0  0  0  0
  -18.3751   39.2110  -21.3691 S   0  0  0  0  0  6  0  0  0  0  0  0
  -18.3388   38.0446  -22.3321 O   0  0  0  0  0  0  0  0  0  0  0  0
  -19.4401   38.8492  -20.3124 O   0  0  0  0  0  0  0  0  0  0  0  0
  -16.8695   39.3805  -20.5945 N   0  0  0  0  0  0  0  0  0  0  0  0
  -16.0659   40.5370  -20.6701 C   0  0  0  0  0  0  0  0  0  0  0  0
  -14.7814   40.5811  -21.1586 C   0  0  0  0  0  0  0  0  0  0  0  0
  -14.0220   41.7498  -21.1863 C   0  0  0  0  0  0  0  0  0  0  0  0
  -14.5570   42.9127  -20.7120 C   0  0  0  0  0  0  0  0  0  0  0  0
  -13.6903   43.9982  -20.8004 C   0  0  0  0  0  0  0  0  0  0  0  0
  -13.8454   45.2598  -20.2370 C   0  0  0  0  0  0  0  0  0  0  0  0
  -14.9932   45.8654  -19.7422 C   0  0  0  0  0  0  0  0  0  0  0  0
  -14.8608   47.1777  -19.4831 N   0  0  0  0  0  0  0  0  0  0  0  0
  -15.8645   47.9394  -18.9973 C   0  0  0  0  0  0  0  0  0  0  0  0
  -17.1150   47.4180  -18.7285 C   0  0  0  0  0  0  0  0  0  0  0  0
  -18.1888   48.2549  -18.2034 C   0  0  0  0  0  0  0  0  0  0  0  0
  -19.3879   47.8025  -17.6575 C   0  0  0  0  0  0  0  0  0  0  0  0
  -20.0962   48.8868  -17.2954 N   0  0  0  0  0  0  0  0  0  0  0  0
  -19.4421   50.0022  -17.5677 N   0  0  0  0  0  0  0  0  0  0  0  0
  -19.9061   51.3738  -17.3108 C   0  0  0  0  0  0  0  0  0  0  0  0
  -18.2746   49.6296  -18.1230 C   0  0  0  0  0  0  0  0  0  0  0  0
  -17.2807   46.0713  -18.9851 C   0  0  0  0  0  0  0  0  0  0  0  0
  -16.2252   45.2997  -19.4892 C   0  0  0  0  0  0  0  0  0  0  0  0
  -16.5695   43.9873  -19.6826 C   0  0  0  0  0  0  0  0  0  0  0  0
  -17.7279   43.6750  -19.3325 O   0  0  0  0  0  0  0  0  0  0  0  0
  -15.8422   42.9137  -20.2119 C   0  0  0  0  0  0  0  0  0  0  0  0
  -16.5755   41.7555  -20.1924 C   0  0  0  0  0  0  0  0  0  0  0  0
  1  2  1  0
  2  3  1  0
  4  3  1  1
  4  5  1  0
  5  6  1  0
  6  7  1  0
  7  8  1  0
  8  9  1  0
  2 10  1  0
 10 11  2  0
 10 12  2  0
 10 13  1  0
 13 14  1  0
 14 15  2  0
 15 16  1  0
 16 17  2  0
 17 18  1  0
 18 19  2  0
 19 20  1  0
 20 21  2  0
 21 22  1  0
 22 23  2  0
 23 24  1  0
 24 25  1  0
 25 26  2  0
 26 27  1  0
 27 28  1  0
 27 29  1  0
 23 30  1  0
 30 31  2  0
 31 32  1  0
 32 33  2  0
 32 34  1  0
 34 35  2  0
  9  4  1  0
 35 14  1  0
 34 17  1  0
 31 20  1  0
 29 24  2  0
M  END
$$$$
