
     RDKit          3D

 24 25  0  0  0  0  0  0  0  0999 V2000
  -23.1174   18.9909  -34.2857 C   0  0  0  0  0  0  0  0  0  0  0  0
  -22.2596   17.8384  -33.7740 C   0  0  0  0  0  0  0  0  0  0  0  0
  -23.0781   16.6739  -33.6294 N   0  0  0  0  0  0  0  0  0  0  0  0
  -21.6279   18.2846  -32.4945 C   0  0  0  0  0  0  0  0  0  0  0  0
  -20.5790   17.3809  -31.9555 C   0  0  0  0  0  0  0  0  0  0  0  0
  -19.8001   16.6835  -32.9541 N   0  0  0  0  0  0  0  0  0  0  0  0
  -18.6085   15.9760  -32.5585 C   0  0  0  0  0  0  0  0  0  0  0  0
  -18.2809   15.9465  -31.2206 C   0  0  0  0  0  0  0  0  0  0  0  0
  -17.1828   15.2955  -30.8663 N   0  0  0  0  0  0  0  0  0  0  0  0
  -16.3439   14.6469  -31.7264 C   0  0  0  0  0  0  0  0  0  0  0  0
  -15.1893   13.9878  -31.1642 C   0  0  0  0  0  0  0  0  0  0  0  0
  -14.2717   13.3050  -31.9088 C   0  0  0  0  0  0  0  0  0  0  0  0
  -13.1913   12.7063  -31.2467 C   0  0  0  0  0  0  0  0  0  0  0  0
  -13.0476   12.7965  -29.8873 C   0  0  0  0  0  0  0  0  0  0  0  0
  -13.9596   13.4800  -29.1110 C   0  0  0  0  0  0  0  0  0  0  0  0
  -13.8115   13.6164  -27.3838 Cl  0  0  0  0  0  0  0  0  0  0  0  0
  -15.0107   14.0597  -29.7747 C   0  0  0  0  0  0  0  0  0  0  0  0
  -16.1904   14.9422  -28.7831 Cl  0  0  0  0  0  0  0  0  0  0  0  0
  -16.6881   14.6914  -33.0322 C   0  0  0  0  0  0  0  0  0  0  0  0
  -15.9475   14.0807  -34.0760 N   0  0  0  0  0  0  0  0  0  0  0  0
  -17.8234   15.3604  -33.4289 N   0  0  0  0  0  0  0  0  0  0  0  0
  -20.1419   16.6418  -34.3548 C   0  0  0  0  0  0  0  0  0  0  0  0
  -21.1416   17.6622  -34.7844 C   0  0  0  0  0  0  0  0  0  0  0  0
  -18.0134   15.6303  -32.2481 Cl  0  0  0  0  0  0  0  0  0  0  0  0
  1  2  1  0
  2  3  1  0
  2  4  1  0
  4  5  1  0
  5  6  1  0
  6  7  1  0
  7  8  2  0
  8  9  1  0
  9 10  2  0
 10 11  1  0
 11 12  2  0
 12 13  1  0
 13 14  2  0
 14 15  1  0
 15 16  1  0
 15 17  2  0
 17 18  1  0
 10 19  1  0
 19 20  1  0
 19 21  2  0
  6 22  1  0
 22 23  1  0
 23  2  1  0
 21  7  1  0
 17 11  1  0
M  END
$$$$
