
     RDKit          3D

 15 16  0  0  0  0  0  0  0  0999 V2000
  -25.6222   25.6514  -37.5654 C   0  0  0  0  0  0  0  0  0  0  0  0
  -24.2835   24.9689  -37.4485 C   0  0  0  0  0  0  0  0  0  0  0  0
  -24.1722   23.8851  -36.8230 O   0  0  0  0  0  0  0  0  0  0  0  0
  -23.1131   25.5087  -38.0277 N   0  0  0  0  0  0  0  0  0  0  0  0
  -21.8383   24.8759  -37.8546 C   0  0  0  0  0  0  0  0  0  0  0  0
  -21.7828   23.4827  -38.3959 C   0  0  0  0  0  0  0  0  0  0  0  0
  -21.6967   23.5853  -39.8875 C   0  0  0  0  0  0  0  0  0  0  0  0
  -21.5602   24.7097  -40.6700 C   0  0  0  0  0  0  0  0  0  0  0  0
  -21.5211   24.3804  -41.9654 N   0  0  0  0  0  0  0  0  0  0  0  0
  -21.6330   23.0355  -42.0189 C   0  0  0  0  0  0  0  0  0  0  0  0
  -21.6435   22.2292  -43.1431 C   0  0  0  0  0  0  0  0  0  0  0  0
  -21.7687   20.8653  -42.9709 C   0  0  0  0  0  0  0  0  0  0  0  0
  -21.8813   20.3039  -41.7225 C   0  0  0  0  0  0  0  0  0  0  0  0
  -21.8670   21.1446  -40.6160 C   0  0  0  0  0  0  0  0  0  0  0  0
  -21.7435   22.5094  -40.7536 C   0  0  0  0  0  0  0  0  0  0  0  0
  1  2  1  0
  2  3  2  0
  2  4  1  0
  4  5  1  0
  5  6  1  0
  6  7  1  0
  7  8  2  0
  8  9  1  0
  9 10  1  0
 10 11  2  0
 11 12  1  0
 12 13  2  0
 13 14  1  0
 14 15  2  0
 15  7  1  0
 15 10  1  0
M  END
$$$$
