
     RDKit          3D

 19 21  0  0  0  0  0  0  0  0999 V2000
  -20.6894   39.1502  -24.2891 C   0  0  0  0  0  0  0  0  0  0  0  0
  -19.6778   39.0226  -23.2057 C   0  0  0  0  0  0  0  0  0  0  0  0
  -18.8713   37.9260  -23.1255 C   0  0  0  0  0  0  0  0  0  0  0  0
  -17.9285   37.8012  -22.1205 C   0  0  0  0  0  0  0  0  0  0  0  0
  -17.1694   36.7740  -22.0410 N   0  0  0  0  0  0  0  0  0  0  0  0
  -17.6309   35.4324  -22.0066 C   0  0  0  0  0  0  0  0  0  0  0  0
  -16.8785   34.4024  -21.4884 C   0  0  0  0  0  0  0  0  0  0  0  0
  -17.3553   33.0886  -21.4658 C   0  0  0  0  0  0  0  0  0  0  0  0
  -18.5912   32.8053  -21.9645 C   0  0  0  0  0  0  0  0  0  0  0  0
  -19.1063   31.4101  -21.9444 C   0  0  0  0  0  0  0  0  0  0  0  0
  -19.3649   33.8189  -22.4892 C   0  0  0  0  0  0  0  0  0  0  0  0
  -20.6996   33.5310  -23.0310 C   0  0  0  0  0  0  0  0  0  0  0  0
  -18.8772   35.1318  -22.5068 C   0  0  0  0  0  0  0  0  0  0  0  0
  -17.7972   38.7625  -21.2097 N   0  0  0  0  0  0  0  0  0  0  0  0
  -17.0067   38.8974  -20.1785 N   0  0  0  0  0  0  0  0  0  0  0  0
  -17.3056   40.0858  -19.5925 C   0  0  0  0  0  0  0  0  0  0  0  0
  -18.2901   40.6986  -20.2621 N   0  0  0  0  0  0  0  0  0  0  0  0
  -18.5925   39.8532  -21.2816 C   0  0  0  0  0  0  0  0  0  0  0  0
  -19.5134   39.9798  -22.2596 N   0  0  0  0  0  0  0  0  0  0  0  0
  1  2  1  0
  2  3  2  0
  3  4  1  0
  4  5  2  0
  5  6  1  0
  6  7  2  0
  7  8  1  0
  8  9  2  0
  9 10  1  0
  9 11  1  0
 11 12  1  0
 11 13  2  0
  4 14  1  0
 14 15  1  0
 15 16  2  0
 16 17  1  0
 17 18  2  0
 18 19  1  0
 19  2  1  0
 13  6  1  0
 18 14  1  0
M  END
$$$$
