
     RDKit          3D

 37 41  0  0  0  0  0  0  0  0999 V2000
  -12.8376   18.9227  -41.1425 C   0  0  0  0  0  0  0  0  0  0  0  0
  -14.1696   18.6635  -40.6310 N   0  0  0  0  0  0  0  0  0  0  0  0
  -15.3193   19.0748  -41.2169 C   0  0  0  0  0  0  0  0  0  0  0  0
  -15.3969   19.7971  -42.4413 N   0  0  0  0  0  0  0  0  0  0  0  0
  -16.5829   20.4228  -42.9252 C   0  0  0  0  0  0  0  0  0  0  0  0
  -17.4331   21.1046  -42.0782 C   0  0  0  0  0  0  0  0  0  0  0  0
  -18.5889   21.7063  -42.5250 C   0  0  0  0  0  0  0  0  0  0  0  0
  -18.9617   21.6583  -43.8611 C   0  0  0  0  0  0  0  0  0  0  0  0
  -20.2192   22.3103  -44.3153 C   0  0  0  0  0  0  0  0  0  0  0  0
  -20.9681   22.6317  -43.1982 F   0  0  0  0  0  0  0  0  0  0  0  0
  -19.9958   23.4290  -45.0562 F   0  0  0  0  0  0  0  0  0  0  0  0
  -20.9346   21.3465  -45.0261 F   0  0  0  0  0  0  0  0  0  0  0  0
  -18.1082   20.9761  -44.7029 C   0  0  0  0  0  0  0  0  0  0  0  0
  -16.9465   20.3695  -44.2610 C   0  0  0  0  0  0  0  0  0  0  0  0
  -16.3011   18.6296  -40.4038 N   0  0  0  0  0  0  0  0  0  0  0  0
  -15.7858   17.9607  -39.3455 C   0  0  0  0  0  0  0  0  0  0  0  0
  -16.3104   17.3129  -38.2533 C   0  0  0  0  0  0  0  0  0  0  0  0
  -15.4889   16.6929  -37.3147 C   0  0  0  0  0  0  0  0  0  0  0  0
  -16.0039   16.0341  -36.2021 O   0  0  0  0  0  0  0  0  0  0  0  0
  -16.5304   16.7742  -35.1621 C   0  0  0  0  0  0  0  0  0  0  0  0
  -15.9480   17.9260  -34.7340 C   0  0  0  0  0  0  0  0  0  0  0  0
  -16.5286   18.6182  -33.6934 C   0  0  0  0  0  0  0  0  0  0  0  0
  -17.6525   18.1683  -33.1059 N   0  0  0  0  0  0  0  0  0  0  0  0
  -18.2616   17.0337  -33.4986 C   0  0  0  0  0  0  0  0  0  0  0  0
  -19.4846   16.5840  -32.8464 C   0  0  0  0  0  0  0  0  0  0  0  0
  -19.8256   16.6810  -31.5458 N   0  0  0  0  0  0  0  0  0  0  0  0
  -21.0403   16.1408  -31.3691 C   0  0  0  0  0  0  0  0  0  0  0  0
  -21.4950   15.6827  -32.5849 C   0  0  0  0  0  0  0  0  0  0  0  0
  -22.7928   15.0155  -32.8382 C   0  0  0  0  0  0  0  0  0  0  0  0
  -22.6666   13.6430  -32.6936 F   0  0  0  0  0  0  0  0  0  0  0  0
  -23.1585   15.2682  -34.1696 F   0  0  0  0  0  0  0  0  0  0  0  0
  -23.7490   15.5123  -31.9823 F   0  0  0  0  0  0  0  0  0  0  0  0
  -20.5235   15.9697  -33.4595 N   0  0  0  0  0  0  0  0  0  0  0  0
  -17.7008   16.3323  -34.5286 C   0  0  0  0  0  0  0  0  0  0  0  0
  -14.1237   16.7291  -37.4812 C   0  0  0  0  0  0  0  0  0  0  0  0
  -13.5887   17.3677  -38.5595 C   0  0  0  0  0  0  0  0  0  0  0  0
  -14.4165   17.9873  -39.4995 C   0  0  0  0  0  0  0  0  0  0  0  0
  1  2  1  0
  2  3  1  0
  3  4  1  0
  4  5  1  0
  5  6  2  0
  6  7  1  0
  7  8  2  0
  8  9  1  0
  9 10  1  0
  9 11  1  0
  9 12  1  0
  8 13  1  0
 13 14  2  0
  3 15  2  0
 15 16  1  0
 16 17  2  0
 17 18  1  0
 18 19  1  0
 19 20  1  0
 20 21  2  0
 21 22  1  0
 22 23  2  0
 23 24  1  0
 24 25  1  0
 25 26  2  0
 26 27  1  0
 27 28  2  0
 28 29  1  0
 29 30  1  0
 29 31  1  0
 29 32  1  0
 28 33  1  0
 24 34  2  0
 18 35  2  0
 35 36  1  0
 36 37  2  0
 37  2  1  0
 14  5  1  0
 37 16  1  0
 34 20  1  0
 33 25  1  0
M  END
$$$$
