
     RDKit          3D

 21 23  0  0  0  0  0  0  0  0999 V2000
  -17.0550   32.1394  -21.1760 O   0  0  0  0  0  0  0  0  0  0  0  0
  -17.8248   33.2252  -21.5183 C   0  0  0  0  0  0  0  0  0  0  0  0
  -19.1583   33.0649  -21.7873 C   0  0  0  0  0  0  0  0  0  0  0  0
  -19.9356   34.1775  -22.1354 C   0  0  0  0  0  0  0  0  0  0  0  0
  -21.2654   33.9773  -22.3972 O   0  0  0  0  0  0  0  0  0  0  0  0
  -19.3303   35.4130  -22.1977 C   0  0  0  0  0  0  0  0  0  0  0  0
  -17.9919   35.5924  -21.9306 C   0  0  0  0  0  0  0  0  0  0  0  0
  -17.2568   34.4700  -21.5903 C   0  0  0  0  0  0  0  0  0  0  0  0
  -17.4405   36.8682  -22.0112 O   0  0  0  0  0  0  0  0  0  0  0  0
  -17.9478   37.8155  -22.9648 C   0  0  2  0  0  0  0  0  0  0  0  0
  -17.9166   39.1817  -22.4272 C   0  0  0  0  0  0  0  0  0  0  0  0
  -17.8030   40.2406  -23.2961 C   0  0  0  0  0  0  0  0  0  0  0  0
  -17.7766   41.5064  -22.7545 C   0  0  0  0  0  0  0  0  0  0  0  0
  -17.8573   41.7586  -21.4047 C   0  0  0  0  0  0  0  0  0  0  0  0
  -17.8234   43.0685  -20.9392 O   0  0  0  0  0  0  0  0  0  0  0  0
  -17.9723   40.6797  -20.5301 C   0  0  0  0  0  0  0  0  0  0  0  0
  -18.0535   40.9213  -19.1799 O   0  0  0  0  0  0  0  0  0  0  0  0
  -18.0003   39.3876  -21.0673 C   0  0  0  0  0  0  0  0  0  0  0  0
  -19.2588   37.4132  -23.5447 C   0  0  2  0  0  0  0  0  0  0  0  0
  -20.0313   38.5279  -23.9146 O   0  0  0  0  0  0  0  0  0  0  0  0
  -20.0968   36.6292  -22.5597 C   0  0  0  0  0  0  0  0  0  0  0  0
  1  2  1  0
  2  3  2  0
  3  4  1  0
  4  5  1  0
  4  6  2  0
  6  7  1  0
  7  8  2  0
  7  9  1  0
  9 10  1  0
 10 11  1  1
 11 12  2  0
 12 13  1  0
 13 14  2  0
 14 15  1  0
 14 16  1  0
 16 17  1  0
 16 18  2  0
 10 19  1  0
 19 20  1  1
 19 21  1  0
  8  2  1  0
 18 11  1  0
 21  6  1  0
M  END
$$$$
