
     RDKit          3D

 18 19  0  0  0  0  0  0  0  0999 V2000
  -20.5625   39.2628  -28.0572 O   0  0  0  0  0  0  0  0  0  0  0  0
  -21.2542   39.7639  -27.1408 C   0  0  0  0  0  0  0  0  0  0  0  0
  -20.7305   39.9802  -25.8482 N   0  0  0  0  0  0  0  0  0  0  0  0
  -19.3421   39.6481  -25.5826 C   0  0  0  0  0  0  0  0  0  0  0  0
  -19.1177   38.9719  -24.3029 C   0  0  0  0  0  0  0  0  0  0  0  0
  -19.5437   39.5149  -23.1195 C   0  0  0  0  0  0  0  0  0  0  0  0
  -19.2963   38.7847  -21.9438 C   0  0  0  0  0  0  0  0  0  0  0  0
  -18.6600   37.5830  -21.9455 C   0  0  0  0  0  0  0  0  0  0  0  0
  -18.3367   36.6439  -20.5017 Cl  0  0  0  0  0  0  0  0  0  0  0  0
  -18.2385   37.0556  -23.1625 C   0  0  0  0  0  0  0  0  0  0  0  0
  -18.4662   37.7452  -24.3320 C   0  0  0  0  0  0  0  0  0  0  0  0
  -22.5921   40.1012  -27.4788 N   0  0  0  0  0  0  0  0  0  0  0  0
  -23.3154   39.4441  -28.5452 C   0  0  0  0  0  0  0  0  0  0  0  0
  -24.1599   38.3783  -27.9509 C   0  0  0  0  0  0  0  0  0  0  0  0
  -25.2893   37.9061  -28.8065 C   0  0  0  0  0  0  0  0  0  0  0  0
  -26.0071   38.9555  -29.5789 C   0  0  0  0  0  0  0  0  0  0  0  0
  -25.0776   39.9469  -30.2478 C   0  0  0  0  0  0  0  0  0  0  0  0
  -24.1396   40.5325  -29.2205 C   0  0  0  0  0  0  0  0  0  0  0  0
  1  2  2  0
  2  3  1  0
  3  4  1  0
  4  5  1  0
  5  6  2  0
  6  7  1  0
  7  8  2  0
  8  9  1  0
  8 10  1  0
 10 11  2  0
  2 12  1  0
 12 13  1  0
 13 14  1  0
 14 15  1  0
 15 16  1  0
 16 17  1  0
 17 18  1  0
 11  5  1  0
 18 13  1  0
M  END
$$$$
