
     RDKit          3D

 27 30  0  0  0  0  0  0  0  0999 V2000
  -15.9447   17.1359  -30.7292 C   0  0  0  0  0  0  0  0  0  0  0  0
  -16.1426   16.3667  -32.0220 C   0  0  0  0  0  0  0  0  0  0  0  0
  -17.0124   15.1669  -31.6934 C   0  0  0  0  0  0  0  0  0  0  0  0
  -16.8088   17.2390  -33.0298 C   0  0  0  0  0  0  0  0  0  0  0  0
  -18.0967   17.6381  -32.9455 C   0  0  0  0  0  0  0  0  0  0  0  0
  -18.7418   18.4636  -33.8872 C   0  0  0  0  0  0  0  0  0  0  0  0
  -20.1523   18.7740  -33.6932 C   0  0  0  0  0  0  0  0  0  0  0  0
  -20.5861   20.0606  -33.4223 N   0  0  0  0  0  0  0  0  0  0  0  0
  -21.8793   20.0843  -33.3483 N   0  0  0  0  0  0  0  0  0  0  0  0
  -22.3047   18.8544  -33.5630 C   0  0  0  0  0  0  0  0  0  0  0  0
  -23.5104   18.5043  -33.5653 O   0  0  0  0  0  0  0  0  0  0  0  0
  -21.2173   18.0295  -33.7814 N   0  0  0  0  0  0  0  0  0  0  0  0
  -21.3950   16.6531  -34.0887 C   0  0  0  0  0  0  0  0  0  0  0  0
  -21.0855   16.1387  -35.3478 C   0  0  0  0  0  0  0  0  0  0  0  0
  -21.2120   14.8020  -35.6519 C   0  0  0  0  0  0  0  0  0  0  0  0
  -21.6592   13.8941  -34.7065 C   0  0  0  0  0  0  0  0  0  0  0  0
  -21.9698   14.3813  -33.4583 C   0  0  0  0  0  0  0  0  0  0  0  0
  -22.3833   13.2901  -32.7171 C   0  0  0  0  0  0  0  0  0  0  0  0
  -22.3079   12.1905  -33.5396 C   0  0  0  0  0  0  0  0  0  0  0  0
  -21.8668   12.5507  -34.7552 N   0  0  0  0  0  0  0  0  0  0  0  0
  -21.6484   11.6817  -35.9117 C   0  0  0  0  0  0  0  0  0  0  0  0
  -21.8393   15.7391  -33.1560 C   0  0  0  0  0  0  0  0  0  0  0  0
  -17.9702   18.8547  -34.9331 C   0  0  0  0  0  0  0  0  0  0  0  0
  -18.4217   19.6527  -35.9562 O   0  0  0  0  0  0  0  0  0  0  0  0
  -16.6261   18.4596  -35.0535 C   0  0  0  0  0  0  0  0  0  0  0  0
  -16.0447   17.6517  -34.1020 C   0  0  0  0  0  0  0  0  0  0  0  0
  -14.7144   17.2778  -34.2479 O   0  0  0  0  0  0  0  0  0  0  0  0
  1  2  1  0
  2  3  1  0
  2  4  1  0
  4  5  2  0
  5  6  1  0
  6  7  1  0
  7  8  2  0
  8  9  1  0
  9 10  1  0
 10 11  2  0
 10 12  1  0
 12 13  1  0
 13 14  2  0
 14 15  1  0
 15 16  2  0
 16 17  1  0
 17 18  1  0
 18 19  2  0
 19 20  1  0
 20 21  1  0
 17 22  2  0
  6 23  2  0
 23 24  1  0
 23 25  1  0
 25 26  2  0
 26 27  1  0
 26  4  1  0
 12  7  1  0
 22 13  1  0
 20 16  1  0
M  END
$$$$
