
     RDKit          3D

 35 36  0  0  0  0  0  0  0  0999 V2000
  -19.9147   37.0508  -20.5651 C   0  0  0  0  0  0  0  0  0  0  0  0
  -19.9681   38.3565  -21.2224 N   0  0  0  0  0  0  0  0  0  0  0  0
  -20.9953   38.5550  -22.2087 C   0  0  0  0  0  0  0  0  0  0  0  0
  -19.0070   39.3146  -20.8538 C   0  0  0  0  0  0  0  0  0  0  0  0
  -18.1250   39.0164  -20.0088 O   0  0  0  0  0  0  0  0  0  0  0  0
  -18.9950   40.7160  -21.4404 C   0  0  0  0  0  0  0  0  0  0  0  0
  -18.0658   41.4887  -20.5650 C   0  0  0  0  0  0  0  0  0  0  0  0
  -17.6576   43.1347  -20.7646 S   0  0  0  0  0  0  0  0  0  0  0  0
  -16.7610   43.7753  -22.1359 C   0  0  0  0  0  0  0  0  0  0  0  0
  -17.6923   44.8527  -23.1916 S   0  0  0  0  0  0  0  0  0  0  0  0
  -17.8137   44.5253  -24.9156 C   0  0  0  0  0  0  0  0  0  0  0  0
  -18.5999   43.3428  -25.3632 C   0  0  0  0  0  0  0  0  0  0  0  0
  -18.6485   43.2238  -26.8548 C   0  0  0  0  0  0  0  0  0  0  0  0
  -18.0669   44.0925  -27.5473 O   0  0  0  0  0  0  0  0  0  0  0  0
  -19.3017   42.1980  -27.5006 O   0  0  0  0  0  1  0  0  0  0  0  0
  -15.4552   44.3911  -21.6981 C   0  0  0  0  0  0  0  0  0  0  0  0
  -14.9676   45.4426  -22.4588 C   0  0  0  0  0  0  0  0  0  0  0  0
  -13.7969   46.0985  -22.0493 C   0  0  0  0  0  0  0  0  0  0  0  0
  -13.2161   45.6273  -20.8880 C   0  0  0  0  0  0  0  0  0  0  0  0
  -13.7040   44.5785  -20.1253 C   0  0  0  0  0  0  0  0  0  0  0  0
  -13.0955   44.3041  -18.8644 C   0  0  0  0  0  0  0  0  0  0  0  0
  -13.3913   43.2481  -18.1150 C   0  0  0  0  0  0  0  0  0  0  0  0
  -12.7211   43.0585  -16.8225 C   0  0  0  0  0  0  0  0  0  0  0  0
  -12.8948   41.9842  -16.0497 C   0  0  0  0  0  0  0  0  0  0  0  0
  -12.3789   41.8661  -14.7625 C   0  0  0  0  0  0  0  0  0  0  0  0
  -11.6459   42.9399  -14.2751 C   0  0  0  0  0  0  0  0  0  0  0  0
  -11.1204   42.9602  -12.9932 C   0  0  0  0  0  0  0  0  0  0  0  0
  -10.4181   44.0439  -12.4708 C   0  0  0  0  0  0  0  0  0  0  0  0
  -10.2483   45.1451  -13.2985 C   0  0  0  0  0  0  0  0  0  0  0  0
   -9.3867   46.5608  -12.6909 Cl  0  0  0  0  0  0  0  0  0  0  0  0
  -10.7693   45.1305  -14.5724 C   0  0  0  0  0  0  0  0  0  0  0  0
  -11.4768   44.0434  -15.0983 C   0  0  0  0  0  0  0  0  0  0  0  0
  -11.9951   44.1051  -16.3325 N   0  0  0  0  0  0  0  0  0  0  0  0
  -14.8680   43.9472  -20.5638 C   0  0  0  0  0  0  0  0  0  0  0  0
  -15.8335   42.6628  -19.9198 Na  0  0  0  0  0 15  0  0  0  0  0  0
  1  2  1  0
  2  3  1  0
  2  4  1  0
  4  5  2  0
  4  6  1  0
  6  7  1  0
  7  8  1  0
  8  9  1  0
  9 10  1  0
 10 11  1  0
 11 12  1  0
 12 13  1  0
 13 14  2  0
 13 15  1  0
  9 16  1  0
 16 17  2  0
 17 18  1  0
 18 19  2  0
 19 20  1  0
 20 21  1  0
 21 22  2  0
 22 23  1  0
 23 24  2  0
 24 25  1  0
 25 26  2  0
 26 27  1  0
 27 28  2  0
 28 29  1  0
 29 30  1  0
 29 31  2  0
 31 32  1  0
 32 33  2  0
 20 34  2  0
 34 16  1  0
 33 23  1  0
 32 26  1  0
M  CHG  2  15  -1  35   1
M  END
$$$$
