
     RDKit          3D

 26 30  0  0  0  0  0  0  0  0999 V2000
  -16.1744   42.8681  -17.5920 C   0  0  0  0  0  0  0  0  0  0  0  0
  -15.6357   43.7533  -18.5584 O   0  0  0  0  0  0  0  0  0  0  0  0
  -15.6048   43.4818  -19.9080 C   0  0  0  0  0  0  0  0  0  0  0  0
  -14.7424   42.6748  -20.3308 O   0  0  0  0  0  0  0  0  0  0  0  0
  -16.5138   44.0758  -20.8740 C   0  0  0  0  0  0  0  0  0  0  0  0
  -16.9250   45.3227  -20.7385 C   0  0  0  0  0  0  0  0  0  0  0  0
  -17.7936   45.9375  -21.6340 O   0  0  0  0  0  0  0  0  0  0  0  0
  -18.1716   45.2963  -22.8545 C   0  0  0  0  0  0  0  0  0  0  0  0
  -19.5855   45.7590  -23.1499 C   0  0  0  0  0  0  0  0  0  0  0  0
  -18.2418   43.8058  -22.6214 C   0  0  0  0  0  0  0  0  0  0  0  0
  -18.4795   43.0645  -23.8987 C   0  0  0  0  0  0  0  0  0  0  0  0
  -18.7097   41.6818  -23.6147 N   0  0  0  0  0  0  0  0  0  0  0  0
  -20.0188   41.3252  -24.0659 C   0  0  0  0  0  0  0  0  0  0  0  0
  -20.6042   40.1004  -23.4324 C   0  0  0  0  0  0  0  0  0  0  0  0
  -19.5923   39.2057  -22.8139 C   0  0  0  0  0  0  0  0  0  0  0  0
  -18.5097   39.8130  -22.2089 C   0  0  0  0  0  0  0  0  0  0  0  0
  -17.7405   38.8280  -21.7270 N   0  0  0  0  0  0  0  0  0  0  0  0
  -18.3012   37.6318  -22.0080 C   0  0  0  0  0  0  0  0  0  0  0  0
  -17.9107   36.3469  -21.7346 C   0  0  0  0  0  0  0  0  0  0  0  0
  -18.7022   35.2735  -22.1539 C   0  0  0  0  0  0  0  0  0  0  0  0
  -19.8791   35.4796  -22.8434 C   0  0  0  0  0  0  0  0  0  0  0  0
  -20.2657   36.7723  -23.1149 C   0  0  0  0  0  0  0  0  0  0  0  0
  -19.4866   37.8330  -22.7023 C   0  0  0  0  0  0  0  0  0  0  0  0
  -18.4920   41.2999  -22.2537 C   0  0  0  0  0  0  0  0  0  0  0  0
  -17.2394   41.8218  -21.6499 C   0  0  0  0  0  0  0  0  0  0  0  0
  -16.9700   43.2626  -22.0092 C   0  0  0  0  0  0  0  0  0  0  0  0
  1  2  1  0
  2  3  1  0
  3  4  2  0
  3  5  1  0
  5  6  2  0
  6  7  1  0
  7  8  1  0
  8  9  1  0
  8 10  1  0
 10 11  1  0
 11 12  1  0
 12 13  1  0
 13 14  1  0
 14 15  1  0
 15 16  2  0
 16 17  1  0
 17 18  1  0
 18 19  2  0
 19 20  1  0
 20 21  2  0
 21 22  1  0
 22 23  2  0
 16 24  1  0
 24 25  1  0
 25 26  1  0
 26  5  1  0
 26 10  1  0
 24 12  1  0
 23 15  1  0
 23 18  1  0
M  END
$$$$
