
     RDKit          3D

 22 23  0  0  0  0  0  0  0  0999 V2000
  -19.5520   45.7144  -24.1371 C   0  0  0  0  0  0  0  0  0  0  0  0
  -18.6033   45.3739  -23.1481 O   0  0  0  0  0  0  0  0  0  0  0  0
  -18.3979   44.0556  -22.7890 C   0  0  0  0  0  0  0  0  0  0  0  0
  -19.0778   43.1683  -23.3466 O   0  0  0  0  0  0  0  0  0  0  0  0
  -17.4377   43.7046  -21.8088 C   0  0  0  0  0  0  0  0  0  0  0  0
  -16.3459   44.8293  -20.9159 S   0  0  0  0  0  0  0  0  0  0  0  0
  -15.5169   43.5938  -19.9339 C   0  0  0  0  0  0  0  0  0  0  0  0
  -14.4677   43.8686  -18.9587 C   0  0  0  0  0  0  0  0  0  0  0  0
  -13.3466   43.1425  -18.6092 C   0  0  0  0  0  0  0  0  0  0  0  0
  -12.5418   43.6316  -17.6721 C   0  0  0  0  0  0  0  0  0  0  0  0
  -12.7900   44.8177  -17.0531 C   0  0  0  0  0  0  0  0  0  0  0  0
  -14.3753   45.2998  -17.9171 S   0  0  0  0  0  0  0  0  0  0  0  0
  -16.1070   42.4387  -20.3369 C   0  0  0  0  0  0  0  0  0  0  0  0
  -17.0581   42.4951  -21.2654 C   0  0  0  0  0  0  0  0  0  0  0  0
  -17.7315   41.2943  -21.7424 N   0  0  0  0  0  0  0  0  0  0  0  0
  -17.5612   40.0754  -21.0679 C   0  0  0  0  0  0  0  0  0  0  0  0
  -16.9092   40.0617  -19.9960 O   0  0  0  0  0  0  0  0  0  0  0  0
  -18.1315   38.8417  -21.6009 C   0  0  0  0  0  0  0  0  0  0  0  0
  -17.9877   37.6929  -20.9549 C   0  0  0  0  0  0  0  0  0  0  0  0
  -18.6293   36.4782  -21.4264 C   0  0  0  0  0  0  0  0  0  0  0  0
  -18.5555   35.4271  -20.7644 O   0  0  0  0  0  0  0  0  0  0  0  0
  -19.3262   36.4808  -22.6134 O   0  0  0  0  0  0  0  0  0  0  0  0
  1  2  1  0
  2  3  1  0
  3  4  2  0
  3  5  1  0
  5  6  1  0
  6  7  1  0
  7  8  1  0
  8  9  2  0
  9 10  1  0
 10 11  2  0
 11 12  1  0
  7 13  2  0
 13 14  1  0
 14 15  1  0
 15 16  1  0
 16 17  2  0
 16 18  1  0
 18 19  2  0
 19 20  1  0
 20 21  2  0
 20 22  1  0
 14  5  2  0
 12  8  1  0
M  END
$$$$
