
     RDKit          3D

 20 22  0  0  0  0  0  0  0  0999 V2000
  -19.6580   39.5910  -23.3246 O   0  0  0  0  0  0  0  0  0  0  0  0
  -18.6736   40.1607  -22.7644 C   0  0  0  0  0  0  0  0  0  0  0  0
  -17.7283   39.3796  -22.0565 N   0  0  0  0  0  0  0  0  0  0  0  0
  -17.9081   37.9650  -21.9896 C   0  0  0  0  0  0  0  0  0  0  0  0
  -17.3669   36.9868  -21.5141 N   0  0  0  0  0  0  0  0  0  0  0  0
  -17.7498   35.7459  -21.6006 C   0  0  0  0  0  0  0  0  0  0  0  0
  -17.1349   34.5913  -21.0547 C   0  0  0  0  0  0  0  0  0  0  0  0
  -16.0026   34.6687  -20.3346 F   0  0  0  0  0  0  0  0  0  0  0  0
  -17.6971   33.3554  -21.2575 C   0  0  0  0  0  0  0  0  0  0  0  0
  -18.8486   33.1533  -21.9739 C   0  0  0  0  0  0  0  0  0  0  0  0
  -19.3778   31.9493  -22.1595 F   0  0  0  0  0  0  0  0  0  0  0  0
  -19.4656   34.2795  -22.5173 C   0  0  0  0  0  0  0  0  0  0  0  0
  -18.9002   35.5150  -22.3125 C   0  0  0  0  0  0  0  0  0  0  0  0
  -19.3476   37.1977  -22.8185 S   0  0  0  0  0  0  0  0  0  0  0  0
  -18.5201   41.6086  -22.8508 C   0  0  0  0  0  0  0  0  0  0  0  0
  -17.5304   42.2289  -22.1184 C   0  0  0  0  0  0  0  0  0  0  0  0
  -17.3534   43.6161  -22.1764 C   0  0  0  0  0  0  0  0  0  0  0  0
  -18.1809   44.3736  -22.9775 C   0  0  0  0  0  0  0  0  0  0  0  0
  -19.1550   43.7201  -23.6920 C   0  0  0  0  0  0  0  0  0  0  0  0
  -19.3061   42.3666  -23.6174 N   0  0  0  0  0  0  0  0  0  0  0  0
  1  2  2  0
  2  3  1  0
  3  4  1  0
  4  5  2  0
  5  6  1  0
  6  7  2  0
  7  8  1  0
  7  9  1  0
  9 10  2  0
 10 11  1  0
 10 12  1  0
 12 13  2  0
 13 14  1  0
  2 15  1  0
 15 16  2  0
 16 17  1  0
 17 18  2  0
 18 19  1  0
 19 20  2  0
 14  4  1  0
 20 15  1  0
 13  6  1  0
M  END
$$$$
