
     RDKit          3D

 28 30  0  0  0  0  0  0  0  0999 V2000
  -26.7344   18.1016  -27.1339 Cl  0  0  0  0  0  0  0  0  0  0  0  0
  -31.9897   18.4688  -26.6644 O   0  0  0  0  0  0  0  0  0  0  0  0
  -31.2471   19.2530  -27.2567 C   0  0  0  0  0  0  0  0  0  0  0  0
  -31.0932   19.3922  -28.7295 C   0  0  0  0  0  0  0  0  0  0  0  0
  -29.6753   19.2247  -29.1900 C   0  0  0  0  0  0  0  0  0  0  0  0
  -28.6362   19.9320  -28.3389 C   0  0  0  0  0  0  0  0  0  0  0  0
  -27.9994   20.9463  -29.1789 C   0  0  0  0  0  0  0  0  0  0  0  0
  -26.6980   20.9473  -29.5650 C   0  0  0  0  0  0  0  0  0  0  0  0
  -26.1128   21.9246  -30.3805 C   0  0  0  0  0  0  0  0  0  0  0  0
  -26.8837   22.9511  -30.8258 C   0  0  0  0  0  0  0  0  0  0  0  0
  -28.2055   23.0018  -30.4669 C   0  0  0  0  0  0  0  0  0  0  0  0
  -28.7587   22.0320  -29.6662 C   0  0  0  0  0  0  0  0  0  0  0  0
  -27.7863   18.9965  -27.5663 C   0  0  0  0  0  0  0  0  0  0  0  0
  -27.1124   17.8751  -28.2540 C   0  0  0  0  0  0  0  0  0  0  0  0
  -26.5662   16.9689  -27.1110 C   0  0  0  0  0  0  0  0  0  0  0  0
  -25.5201   17.6496  -26.4269 N   0  0  0  0  0  0  0  0  0  0  0  0
  -25.2517   17.1485  -25.1187 C   0  0  0  0  0  0  0  0  0  0  0  0
  -24.8467   15.7165  -25.2288 C   0  0  0  0  0  0  0  0  0  0  0  0
  -25.7395   14.6672  -25.1755 C   0  0  0  0  0  0  0  0  0  0  0  0
  -25.3372   13.3527  -25.2808 C   0  0  0  0  0  0  0  0  0  0  0  0
  -24.0220   13.0588  -25.4429 C   0  0  0  0  0  0  0  0  0  0  0  0
  -23.0908   14.0736  -25.5020 C   0  0  0  0  0  0  0  0  0  0  0  0
  -23.5076   15.3768  -25.3956 C   0  0  0  0  0  0  0  0  0  0  0  0
  -25.4729   19.0636  -26.5769 C   0  0  0  0  0  0  0  0  0  0  0  0
  -26.7875   19.7546  -26.6935 C   0  0  0  0  0  0  0  0  0  0  0  0
  -29.3620   20.7454  -27.2703 C   0  0  0  0  0  0  0  0  0  0  0  0
  -29.0108   21.9090  -27.0810 O   0  0  0  0  0  0  0  0  0  0  0  0
  -30.4011   20.1711  -26.5269 N   0  0  0  0  0  0  0  0  0  0  0  0
  2  3  2  0
  3  4  1  0
  4  5  1  0
  5  6  1  0
  6  7  1  0
  7  8  2  0
  8  9  1  0
  9 10  2  0
 10 11  1  0
 11 12  2  0
  6 13  1  0
 13 14  1  0
 14 15  1  0
 15 16  1  0
 16 17  1  0
 17 18  1  0
 18 19  2  0
 19 20  1  0
 20 21  2  0
 21 22  1  0
 22 23  2  0
 16 24  1  0
 24 25  1  0
  6 26  1  0
 26 27  2  0
 26 28  1  0
 28  3  1  0
 12  7  1  0
 25 13  1  0
 23 18  1  0
M  END
$$$$
