
     RDKit          3D

 36 40  0  0  0  0  0  0  0  0999 V2000
  -19.9376   22.4676  -31.1400 C   0  0  0  0  0  0  0  0  0  0  0  0
  -21.2571   22.0539  -30.5635 C   0  0  0  0  0  0  0  0  0  0  0  0
  -22.0636   23.0765  -30.0792 C   0  0  0  0  0  0  0  0  0  0  0  0
  -23.2849   22.7134  -29.5437 C   0  0  0  0  0  0  0  0  0  0  0  0
  -23.7016   21.4025  -29.4838 C   0  0  0  0  0  0  0  0  0  0  0  0
  -24.9671   21.1168  -28.9191 N   0  0  0  0  0  0  0  0  0  0  0  0
  -25.3055   19.8673  -28.3429 C   0  0  0  0  0  0  0  0  0  0  0  0
  -24.4502   18.9569  -28.4221 O   0  0  0  0  0  0  0  0  0  0  0  0
  -26.5656   19.5954  -27.6800 C   0  0  0  0  0  0  0  0  0  0  0  0
  -27.6735   20.3304  -28.0330 C   0  0  0  0  0  0  0  0  0  0  0  0
  -28.9134   20.1344  -27.4490 C   0  0  0  0  0  0  0  0  0  0  0  0
  -29.0819   19.1738  -26.4720 C   0  0  0  0  0  0  0  0  0  0  0  0
  -30.4052   18.9845  -25.8692 C   0  0  0  0  0  0  0  0  0  0  0  0
  -30.9296   17.6409  -26.0082 N   0  0  0  0  0  0  0  0  0  0  0  0
  -32.3680   17.7327  -25.8778 C   0  0  0  0  0  0  0  0  0  0  0  0
  -33.0992   16.8148  -26.8185 C   0  0  0  0  0  0  0  0  0  0  0  0
  -32.7121   16.9908  -28.2006 N   0  0  0  0  0  0  0  0  0  0  0  0
  -32.8049   15.6648  -28.8223 C   0  0  0  0  0  0  0  0  0  0  0  0
  -31.3557   17.4779  -28.3457 C   0  0  0  0  0  0  0  0  0  0  0  0
  -30.5143   16.9692  -27.1991 C   0  0  0  0  0  0  0  0  0  0  0  0
  -27.9665   18.4424  -26.1248 C   0  0  0  0  0  0  0  0  0  0  0  0
  -26.7236   18.6386  -26.7100 C   0  0  0  0  0  0  0  0  0  0  0  0
  -22.8797   20.4216  -29.9711 C   0  0  0  0  0  0  0  0  0  0  0  0
  -21.6294   20.7262  -30.5263 C   0  0  0  0  0  0  0  0  0  0  0  0
  -20.7784   19.7269  -31.0294 N   0  0  0  0  0  0  0  0  0  0  0  0
  -21.2829   18.7796  -31.9988 C   0  0  0  0  0  0  0  0  0  0  0  0
  -20.9777   17.7982  -32.5737 N   0  0  0  0  0  0  0  0  0  0  0  0
  -21.6407   17.0969  -33.4416 C   0  0  0  0  0  0  0  0  0  0  0  0
  -21.1433   15.8493  -34.1149 C   0  0  0  0  0  0  0  0  0  0  0  0
  -19.9788   15.2341  -33.7072 C   0  0  0  0  0  0  0  0  0  0  0  0
  -19.4852   14.0963  -34.2889 C   0  0  0  0  0  0  0  0  0  0  0  0
  -20.2087   13.5586  -35.3337 C   0  0  0  0  0  0  0  0  0  0  0  0
  -21.3541   14.1566  -35.7409 N   0  0  0  0  0  0  0  0  0  0  0  0
  -21.8159   15.2741  -35.1510 C   0  0  0  0  0  0  0  0  0  0  0  0
  -22.8880   17.5655  -33.7386 C   0  0  0  0  0  0  0  0  0  0  0  0
  -23.0049   19.0579  -32.6842 S   0  0  0  0  0  0  0  0  0  0  0  0
  1  2  1  0
  2  3  2  0
  3  4  1  0
  4  5  2  0
  5  6  1  0
  6  7  1  0
  7  8  2  0
  7  9  1  0
  9 10  2  0
 10 11  1  0
 11 12  2  0
 12 13  1  0
 13 14  1  0
 14 15  1  0
 15 16  1  0
 16 17  1  0
 17 18  1  0
 17 19  1  0
 19 20  1  0
 12 21  1  0
 21 22  2  0
  5 23  1  0
 23 24  2  0
 24 25  1  0
 25 26  1  0
 26 27  2  0
 27 28  1  0
 28 29  1  0
 29 30  2  0
 30 31  1  0
 31 32  2  0
 32 33  1  0
 33 34  2  0
 28 35  2  0
 35 36  1  0
 24  2  1  0
 36 26  1  0
 22  9  1  0
 34 29  1  0
 20 14  1  0
M  END
$$$$
