
     RDKit          3D

 39 44  0  0  0  0  0  0  0  0999 V2000
  -30.1419   15.1094  -29.9205 O   0  0  0  0  0  0  0  0  0  0  0  0
  -30.4501   16.1778  -29.3317 C   0  0  0  0  0  0  0  0  0  0  0  0
  -29.4680   16.8179  -28.4762 C   0  0  0  0  0  0  0  0  0  0  0  0
  -29.1326   16.4550  -27.2238 C   0  0  0  0  0  0  0  0  0  0  0  0
  -28.1663   17.1581  -26.5169 C   0  0  0  0  0  0  0  0  0  0  0  0
  -27.5142   18.2561  -27.0790 C   0  0  0  0  0  0  0  0  0  0  0  0
  -26.5845   19.1022  -26.3917 C   0  0  0  0  0  0  0  0  0  0  0  0
  -27.0077   20.2693  -26.0278 O   0  0  0  0  0  0  0  0  0  0  0  0
  -25.2785   18.8204  -26.0706 N   0  0  0  0  0  0  0  0  0  0  0  0
  -24.4610   17.7543  -26.5186 C   0  0  0  0  0  0  0  0  0  0  0  0
  -24.1518   16.7997  -25.4077 C   0  0  0  0  0  0  0  0  0  0  0  0
  -23.9942   17.4201  -24.0637 C   0  0  0  0  0  0  0  0  0  0  0  0
  -22.6674   17.0887  -23.5647 N   0  0  0  0  0  0  0  0  0  0  0  0
  -22.4059   17.5108  -22.2533 C   0  0  0  0  0  0  0  0  0  0  0  0
  -21.4233   16.5147  -21.6973 C   0  0  0  0  0  0  0  0  0  0  0  0
  -21.6101   15.2848  -22.5670 C   0  0  0  0  0  0  0  0  0  0  0  0
  -22.1864   15.8095  -23.8698 C   0  0  0  0  0  0  0  0  0  0  0  0
  -24.2608   18.8551  -23.9022 C   0  0  0  0  0  0  0  0  0  0  0  0
  -24.5226   19.6813  -25.1072 C   0  0  0  0  0  0  0  0  0  0  0  0
  -27.8572   18.6392  -28.3807 C   0  0  0  0  0  0  0  0  0  0  0  0
  -27.2238   19.7281  -29.0003 N   0  0  0  0  0  0  0  0  0  0  0  0
  -27.8879   20.7745  -29.6485 C   0  0  0  0  0  0  0  0  0  0  0  0
  -29.2327   20.7070  -29.9013 C   0  0  0  0  0  0  0  0  0  0  0  0
  -29.9253   21.7230  -30.5289 C   0  0  0  0  0  0  0  0  0  0  0  0
  -29.2590   22.8592  -30.9259 C   0  0  0  0  0  0  0  0  0  0  0  0
  -27.9056   22.9493  -30.6827 C   0  0  0  0  0  0  0  0  0  0  0  0
  -27.2182   21.9087  -30.0455 C   0  0  0  0  0  0  0  0  0  0  0  0
  -28.8133   17.9216  -29.0399 C   0  0  0  0  0  0  0  0  0  0  0  0
  -31.7268   16.7714  -29.4829 N   0  0  0  0  0  0  0  0  0  0  0  0
  -32.1896   17.9243  -28.7876 C   0  0  0  0  0  0  0  0  0  0  0  0
  -33.6209   17.8827  -28.3298 C   0  0  0  0  0  0  0  0  0  0  0  0
  -34.5450   17.1050  -29.1963 C   0  0  0  0  0  0  0  0  0  0  0  0
  -35.1242   17.7569  -30.2898 N   0  0  0  0  0  0  0  0  0  0  0  0
  -36.2048   17.0919  -30.9481 C   0  0  0  0  0  0  0  0  0  0  0  0
  -37.3062   18.1093  -31.1951 C   0  0  0  0  0  0  0  0  0  0  0  0
  -36.9061   19.3338  -30.4249 C   0  0  0  0  0  0  0  0  0  0  0  0
  -35.3957   19.1223  -30.2606 C   0  0  0  0  0  0  0  0  0  0  0  0
  -33.8852   15.8120  -29.6969 C   0  0  0  0  0  0  0  0  0  0  0  0
  -32.6232   16.1407  -30.4505 C   0  0  0  0  0  0  0  0  0  0  0  0
  1  2  2  0
  2  3  1  0
  3  4  2  0
  4  5  1  0
  5  6  2  0
  6  7  1  0
  7  8  2  0
  7  9  1  0
  9 10  1  0
 10 11  1  0
 11 12  1  0
 12 13  1  0
 13 14  1  0
 14 15  1  0
 15 16  1  0
 16 17  1  0
 12 18  1  0
 18 19  1  0
  6 20  1  0
 20 21  1  0
 21 22  1  0
 22 23  2  0
 23 24  1  0
 24 25  2  0
 25 26  1  0
 26 27  2  0
 20 28  2  0
  2 29  1  0
 29 30  1  0
 30 31  1  0
 31 32  1  0
 32 33  1  0
 33 34  1  0
 34 35  1  0
 35 36  1  0
 36 37  1  0
 32 38  1  0
 38 39  1  0
 28  3  1  0
 39 29  1  0
 19  9  1  0
 27 22  1  0
 37 33  1  0
 17 13  1  0
M  END
$$$$
