
     RDKit          3D

 14 16  0  0  0  0  0  0  0  0999 V2000
  -16.7280   37.7780  -23.0699 C   0  0  0  0  0  0  0  0  0  0  0  0
  -17.8475   37.4290  -22.1376 C   0  0  2  0  0  0  0  0  0  0  0  0
  -17.4305   36.4813  -21.1011 C   0  0  0  0  0  0  0  0  0  0  0  0
  -16.4793   36.6344  -20.2854 O   0  0  0  0  0  0  0  0  0  0  0  0
  -18.2552   35.3406  -21.1337 O   0  0  0  0  0  0  0  0  0  0  0  0
  -19.3600   35.5844  -21.9355 C   0  0  0  0  0  0  0  0  0  0  0  0
  -20.4656   35.0019  -21.9933 O   0  0  0  0  0  0  0  0  0  0  0  0
  -19.0016   36.7438  -22.7911 C   0  0  2  0  0  0  0  0  0  0  0  0
  -18.7423   36.2486  -24.1680 C   0  0  0  0  0  0  0  0  0  0  0  0
  -20.0966   37.7592  -22.6855 C   0  0  2  0  0  0  0  0  0  0  0  0
  -19.8141   39.0057  -23.4912 C   0  0  0  0  0  0  0  0  0  0  0  0
  -18.7215   39.6778  -22.6547 C   0  0  0  0  0  0  0  0  0  0  0  0
  -18.5200   38.6715  -21.5666 C   0  0  1  0  0  0  0  0  0  0  0  0
  -19.8565   38.2417  -21.3745 O   0  0  0  0  0  0  0  0  0  0  0  0
  2  1  1  6
  2  3  1  0
  3  4  2  0
  3  5  1  0
  5  6  1  0
  6  7  2  0
  6  8  1  0
  8  9  1  6
  8 10  1  0
 10 11  1  6
 11 12  1  0
 13 12  1  6
 13 14  1  0
  8  2  1  0
 14 10  1  0
 13  2  1  0
M  END
$$$$
