
     RDKit          3D

 16 17  0  0  0  0  0  0  0  0999 V2000
    0.2384   17.2180  -20.6220 C   0  0  0  0  0  0  0  0  0  0  0  0
    0.4984   17.4405  -19.1657 C   0  0  0  0  0  0  0  0  0  0  0  0
    1.5384   18.4944  -18.9795 C   0  0  0  0  0  0  0  0  0  0  0  0
    1.6317   19.7445  -19.4453 C   0  0  0  0  0  0  0  0  0  0  0  0
    2.7125   20.4981  -19.1133 C   0  0  0  0  0  0  0  0  0  0  0  0
    2.9961   21.8336  -19.5011 C   0  0  0  0  0  0  0  0  0  0  0  0
    4.1396   22.4539  -19.0759 C   0  0  0  0  0  0  0  0  0  0  0  0
    5.0693   21.8584  -18.2711 C   0  0  0  0  0  0  0  0  0  0  0  0
    4.8155   20.5611  -17.8814 C   0  0  0  0  0  0  0  0  0  0  0  0
    3.6504   19.9358  -18.3174 C   0  0  0  0  0  0  0  0  0  0  0  0
    3.0223   18.3086  -18.0140 S   0  0  0  0  0  0  0  0  0  0  0  0
    1.0087   16.2277  -18.5816 N   0  0  0  0  0  0  0  0  0  0  0  0
    2.1433   15.6941  -19.0613 O   0  0  0  0  0  0  0  0  0  0  0  0
    0.3087   15.5976  -17.5069 C   0  0  0  0  0  0  0  0  0  0  0  0
    0.9808   14.6643  -16.6837 N   0  0  0  0  0  0  0  0  0  0  0  0
   -0.8945   15.8649  -17.2881 O   0  0  0  0  0  0  0  0  0  0  0  0
  1  2  1  0
  2  3  1  0
  3  4  2  0
  4  5  1  0
  5  6  2  0
  6  7  1  0
  7  8  2  0
  8  9  1  0
  9 10  2  0
 10 11  1  0
  2 12  1  0
 12 13  1  0
 12 14  1  0
 14 15  1  0
 14 16  2  0
 11  3  1  0
 10  5  1  0
M  END
$$$$
