
     RDKit          3D

 21 23  0  0  0  0  0  0  0  0999 V2000
  -16.6286   44.8900  -22.8588 C   0  0  0  0  0  0  0  0  0  0  0  0
  -17.5694   44.3169  -21.9989 O   0  0  0  0  0  0  0  0  0  0  0  0
  -17.9324   42.9772  -22.0458 C   0  0  0  0  0  0  0  0  0  0  0  0
  -16.9848   41.9908  -22.1883 C   0  0  0  0  0  0  0  0  0  0  0  0
  -17.3269   40.6627  -22.2364 C   0  0  0  0  0  0  0  0  0  0  0  0
  -18.6584   40.2237  -22.1439 C   0  0  0  0  0  0  0  0  0  0  0  0
  -18.9316   38.8342  -22.2018 N   0  0  0  0  0  0  0  0  0  0  0  0
  -18.0052   37.8043  -22.4164 C   0  0  0  0  0  0  0  0  0  0  0  0
  -16.7978   37.9738  -22.1409 O   0  0  0  0  0  0  0  0  0  0  0  0
  -18.4442   36.4678  -22.9846 C   0  0  0  0  0  0  0  0  0  0  0  0
  -17.5246   35.3873  -22.4853 C   0  0  0  0  0  0  0  0  0  0  0  0
  -17.7796   33.8876  -23.5346 S   0  0  0  0  0  0  0  0  0  0  0  0
  -19.0658   33.1995  -22.5210 C   0  0  0  0  0  0  0  0  0  0  0  0
  -20.0302   32.3039  -22.5152 N   0  0  0  0  0  0  0  0  0  0  0  0
  -20.6428   32.3453  -21.3377 C   0  0  0  0  0  0  0  0  0  0  0  0
  -20.0115   33.3018  -20.6293 N   0  0  0  0  0  0  0  0  0  0  0  0
  -19.0276   33.8356  -21.3649 N   0  0  0  0  0  0  0  0  0  0  0  0
  -18.0387   34.8221  -21.2125 C   0  0  0  0  0  0  0  0  0  0  0  0
  -17.5483   35.2718  -20.1097 O   0  0  0  0  0  0  0  0  0  0  0  0
  -19.5966   41.2046  -22.0025 C   0  0  0  0  0  0  0  0  0  0  0  0
  -19.2397   42.5668  -21.9537 C   0  0  0  0  0  0  0  0  0  0  0  0
  1  2  1  0
  2  3  1  0
  3  4  2  0
  4  5  1  0
  5  6  2  0
  6  7  1  0
  7  8  1  0
  8  9  2  0
  8 10  1  0
 10 11  1  0
 11 12  1  0
 12 13  1  0
 13 14  2  0
 14 15  1  0
 15 16  2  0
 16 17  1  0
 17 18  1  0
 18 19  2  0
  6 20  1  0
 20 21  2  0
 21  3  1  0
 18 11  1  0
 17 13  1  0
M  END
$$$$
