
     RDKit          3D

 24 27  0  0  0  0  0  0  0  0999 V2000
  -17.6728   33.7226  -23.6756 Cl  0  0  0  0  0  0  0  0  0  0  0  0
  -18.0336   35.4000  -23.3419 C   0  0  0  0  0  0  0  0  0  0  0  0
  -18.8296   36.0826  -24.2391 C   0  0  0  0  0  0  0  0  0  0  0  0
  -19.1096   37.4082  -23.9681 C   0  0  0  0  0  0  0  0  0  0  0  0
  -19.9158   38.1051  -24.8432 C   0  0  0  0  0  0  0  0  0  0  0  0
  -20.4829   37.5773  -26.0275 N   0  0  0  0  0  0  0  0  0  0  0  0
  -20.8075   38.4822  -27.1154 C   0  0  0  0  0  0  0  0  0  0  0  0
  -22.2398   38.9068  -27.1000 C   0  0  0  0  0  0  0  0  0  0  0  0
  -23.0140   37.8959  -27.9096 C   0  0  0  0  0  0  0  0  0  0  0  0
  -22.0131   36.8687  -28.3169 C   0  0  0  0  0  0  0  0  0  0  0  0
  -20.7315   37.6700  -28.4079 C   0  0  0  0  0  0  0  0  0  0  0  0
  -20.1554   39.4076  -24.4920 N   0  0  0  0  0  0  0  0  0  0  0  0
  -19.6719   39.9720  -23.4211 N   0  0  0  0  0  0  0  0  0  0  0  0
  -18.8683   39.3171  -22.5287 C   0  0  0  0  0  0  0  0  0  0  0  0
  -18.3789   40.0348  -21.3500 C   0  0  0  0  0  0  0  0  0  0  0  0
  -17.5898   39.4941  -20.3666 C   0  0  0  0  0  0  0  0  0  0  0  0
  -17.1752   40.2045  -19.2662 C   0  0  0  0  0  0  0  0  0  0  0  0
  -17.5329   41.4779  -19.1100 N   0  0  0  0  0  0  0  0  0  0  0  0
  -18.3157   42.0594  -20.0609 C   0  0  0  0  0  0  0  0  0  0  0  0
  -18.7395   41.3594  -21.1698 C   0  0  0  0  0  0  0  0  0  0  0  0
  -18.5890   38.0038  -22.8195 C   0  0  0  0  0  0  0  0  0  0  0  0
  -17.7933   37.2911  -21.9368 C   0  0  0  0  0  0  0  0  0  0  0  0
  -17.5136   35.9680  -22.2072 C   0  0  0  0  0  0  0  0  0  0  0  0
  -16.5033   35.0761  -21.0816 Cl  0  0  0  0  0  0  0  0  0  0  0  0
  1  2  1  0
  2  3  2  0
  3  4  1  0
  4  5  2  0
  5  6  1  0
  6  7  1  0
  7  8  1  0
  8  9  1  0
  9 10  1  0
 10 11  1  0
  5 12  1  0
 12 13  2  0
 13 14  1  0
 14 15  1  0
 15 16  2  0
 16 17  1  0
 17 18  2  0
 18 19  1  0
 19 20  2  0
 14 21  2  0
 21 22  1  0
 22 23  2  0
 23 24  1  0
 23  2  1  0
 21  4  1  0
 11  7  1  0
 20 15  1  0
M  END
$$$$
