
     RDKit          3D

 30 34  0  0  0  0  0  0  0  0999 V2000
  -18.2766   44.0011  -22.5412 C   0  0  0  0  0  0  0  0  0  0  0  0
  -17.8805   42.5718  -22.5695 C   0  0  0  0  0  0  0  0  0  0  0  0
  -16.6944   42.1838  -21.9906 C   0  0  0  0  0  0  0  0  0  0  0  0
  -16.3146   40.8640  -21.9998 C   0  0  0  0  0  0  0  0  0  0  0  0
  -17.1515   39.9223  -22.6076 C   0  0  0  0  0  0  0  0  0  0  0  0
  -18.3140   40.3469  -23.1695 C   0  0  0  0  0  0  0  0  0  0  0  0
  -19.2067   39.3970  -23.8094 C   0  0  0  0  0  0  0  0  0  0  0  0
  -20.0205   39.5645  -24.8609 N   0  0  0  0  0  0  0  0  0  0  0  0
  -20.6755   38.4397  -25.1467 C   0  0  0  0  0  0  0  0  0  0  0  0
  -21.6620   38.1466  -26.1883 C   0  0  0  0  0  0  0  0  0  0  0  0
  -20.8580   37.6425  -27.4083 N   0  0  0  0  0  0  0  0  0  0  0  0
  -20.3393   38.6677  -28.1321 C   0  0  0  0  0  0  0  0  0  0  0  0
  -21.6949   39.6096  -27.7240 C   0  0  0  0  0  0  0  0  0  0  0  0
  -21.8810   40.8162  -28.1079 C   0  0  0  0  0  0  0  0  0  0  0  0
  -21.0604   41.5860  -28.9056 C   0  0  0  0  0  0  0  0  0  0  0  0
  -19.9185   40.8706  -29.2828 C   0  0  0  0  0  0  0  0  0  0  0  0
  -19.8503   39.6380  -28.8166 C   0  0  0  0  0  0  0  0  0  0  0  0
  -18.5792   39.0066  -29.3485 F   0  0  0  0  0  0  0  0  0  0  0  0
  -20.2678   37.5275  -24.2561 N   0  0  0  0  0  0  0  0  0  0  0  0
  -19.3720   38.0667  -23.4220 C   0  0  0  0  0  0  0  0  0  0  0  0
  -18.6860   37.4520  -22.2968 C   0  0  0  0  0  0  0  0  0  0  0  0
  -18.6246   38.0774  -21.0780 C   0  0  0  0  0  0  0  0  0  0  0  0
  -17.9533   37.5050  -20.0069 C   0  0  0  0  0  0  0  0  0  0  0  0
  -17.3336   36.2847  -20.1602 C   0  0  0  0  0  0  0  0  0  0  0  0
  -16.6219   35.5272  -19.3200 N   0  0  0  0  0  0  0  0  0  0  0  0
  -16.2285   34.4257  -19.9879 C   0  0  0  0  0  0  0  0  0  0  0  0
  -16.7128   34.5415  -21.2140 N   0  0  0  0  0  0  0  0  0  0  0  0
  -17.4004   35.6809  -21.3632 N   0  0  0  0  0  0  0  0  0  0  0  0
  -18.0586   36.2343  -22.4210 C   0  0  0  0  0  0  0  0  0  0  0  0
  -18.6601   41.6369  -23.1469 N   0  0  0  0  0  0  0  0  0  0  0  0
  1  2  1  0
  2  3  2  0
  3  4  1  0
  4  5  2  0
  5  6  1  0
  6  7  1  0
  7  8  1  0
  8  9  2  0
  9 10  1  0
 10 11  1  0
 11 12  1  0
 12 13  2  0
 13 14  1  0
 14 15  2  0
 15 16  1  0
 16 17  2  0
 17 18  1  0
  9 19  1  0
 19 20  1  0
 20 21  1  0
 21 22  1  0
 22 23  2  0
 23 24  1  0
 24 25  2  0
 25 26  1  0
 26 27  2  0
 27 28  1  0
 28 29  1  0
  6 30  2  0
 30  2  1  0
 20  7  2  0
 29 21  2  0
 17 12  1  0
 28 24  1  0
M  END
$$$$
