
     RDKit          3D

 26 29  0  0  0  0  0  0  0  0999 V2000
  -13.3957   18.4315  -41.7803 C   0  0  0  0  0  0  0  0  0  0  0  0
  -13.8271   19.7405  -41.5543 O   0  0  0  0  0  0  0  0  0  0  0  0
  -15.1238   20.1862  -41.7172 C   0  0  0  0  0  0  0  0  0  0  0  0
  -16.1617   19.6678  -40.9899 C   0  0  0  0  0  0  0  0  0  0  0  0
  -17.4631   20.0939  -41.1328 C   0  0  0  0  0  0  0  0  0  0  0  0
  -17.7760   21.0926  -42.0459 C   0  0  0  0  0  0  0  0  0  0  0  0
  -19.1390   21.5633  -42.2084 C   0  0  0  0  0  0  0  0  0  0  0  0
  -19.9488   22.0497  -41.2483 N   0  0  0  0  0  0  0  0  0  0  0  0
  -21.1304   22.3846  -41.7690 C   0  0  0  0  0  0  0  0  0  0  0  0
  -22.2571   22.9498  -41.0155 C   0  0  0  0  0  0  0  0  0  0  0  0
  -23.5168   23.2170  -41.4063 C   0  0  0  0  0  0  0  0  0  0  0  0
  -24.3823   23.7383  -40.5259 C   0  0  0  0  0  0  0  0  0  0  0  0
  -23.9401   23.9788  -39.2499 C   0  0  0  0  0  0  0  0  0  0  0  0
  -22.2244   23.4252  -39.3621 S   0  0  0  0  0  0  0  0  0  0  0  0
  -21.0668   22.1098  -43.0581 N   0  0  0  0  0  0  0  0  0  0  0  0
  -19.8395   21.5940  -43.3778 C   0  0  0  0  0  0  0  0  0  0  0  0
  -19.5086   21.2047  -44.7302 C   0  0  0  0  0  0  0  0  0  0  0  0
  -19.7011   22.0708  -45.7819 C   0  0  0  0  0  0  0  0  0  0  0  0
  -19.3724   21.6794  -47.0859 C   0  0  0  0  0  0  0  0  0  0  0  0
  -18.8525   20.4335  -47.3628 C   0  0  0  0  0  0  0  0  0  0  0  0
  -18.5332   20.0636  -48.6590 O   0  0  0  0  0  0  0  0  0  0  0  0
  -18.4943   21.0232  -49.6869 C   0  0  0  0  0  0  0  0  0  0  0  0
  -18.6681   19.5808  -46.2911 C   0  0  0  0  0  0  0  0  0  0  0  0
  -18.9826   19.9444  -45.0126 C   0  0  0  0  0  0  0  0  0  0  0  0
  -16.7372   21.6124  -42.7745 C   0  0  0  0  0  0  0  0  0  0  0  0
  -15.4391   21.1846  -42.6294 C   0  0  0  0  0  0  0  0  0  0  0  0
  1  2  1  0
  2  3  1  0
  3  4  2  0
  4  5  1  0
  5  6  2  0
  6  7  1  0
  7  8  1  0
  8  9  2  0
  9 10  1  0
 10 11  2  0
 11 12  1  0
 12 13  2  0
 13 14  1  0
  9 15  1  0
 15 16  1  0
 16 17  1  0
 17 18  2  0
 18 19  1  0
 19 20  2  0
 20 21  1  0
 21 22  1  0
 20 23  1  0
 23 24  2  0
  6 25  1  0
 25 26  2  0
 26  3  1  0
 16  7  2  0
 24 17  1  0
 14 10  1  0
M  END
$$$$
