
     RDKit          3D

 36 39  0  0  0  0  0  0  0  0999 V2000
  -31.3126   23.6145  -27.9853 C   0  0  0  0  0  0  0  0  0  0  0  0
  -30.7964   22.6383  -28.9903 C   0  0  0  0  0  0  0  0  0  0  0  0
  -30.7646   21.3187  -28.5393 O   0  0  0  0  0  0  0  0  0  0  0  0
  -30.2270   20.2664  -29.1980 C   0  0  0  0  0  0  0  0  0  0  0  0
  -30.6254   19.9739  -30.3431 O   0  0  0  0  0  0  0  0  0  0  0  0
  -29.1515   19.4352  -28.5754 C   0  0  0  0  0  0  0  0  0  0  0  0
  -29.3230   18.1297  -28.5064 C   0  0  0  0  0  0  0  0  0  0  0  0
  -30.5458   17.4741  -29.0271 C   0  0  0  0  0  0  0  0  0  0  0  0
  -28.2716   17.3755  -27.9037 N   0  0  0  0  0  0  0  0  0  0  0  0
  -27.2639   17.9752  -27.4810 C   0  0  0  0  0  0  0  0  0  0  0  0
  -25.7539   17.2635  -26.6587 S   0  0  0  0  0  0  0  0  0  0  0  0
  -24.9648   18.8141  -26.4541 C   0  0  0  0  0  0  0  0  0  0  0  0
  -23.7780   18.9740  -25.8920 C   0  0  0  0  0  0  0  0  0  0  0  0
  -23.1842   17.8137  -25.2448 C   0  0  0  0  0  0  0  0  0  0  0  0
  -21.9759   17.8297  -24.5955 C   0  0  0  0  0  0  0  0  0  0  0  0
  -21.5029   16.6750  -24.0152 C   0  0  0  0  0  0  0  0  0  0  0  0
  -22.1944   15.4724  -24.0516 C   0  0  0  0  0  0  0  0  0  0  0  0
  -21.6723   14.3317  -23.4488 O   0  0  0  0  0  0  0  0  0  0  0  0
  -22.4699   13.1706  -23.4596 C   0  0  0  0  0  0  0  0  0  0  0  0
  -21.8735   12.0431  -22.7555 C   0  0  0  0  0  0  0  0  0  0  0  0
  -22.5575   11.3053  -22.0131 O   0  0  0  0  0  0  0  0  0  0  0  0
  -20.5285   11.7669  -22.8975 O   0  0  0  0  0  0  0  0  0  0  0  0
  -23.4082   15.4839  -24.7116 C   0  0  0  0  0  0  0  0  0  0  0  0
  -23.9060   16.6331  -25.3038 C   0  0  0  0  0  0  0  0  0  0  0  0
  -25.8286   19.6817  -26.9784 C   0  0  0  0  0  0  0  0  0  0  0  0
  -25.4983   20.9493  -26.9652 O   0  0  0  0  0  0  0  0  0  0  0  0
  -26.9667   19.2458  -27.4844 N   0  0  0  0  0  0  0  0  0  0  0  0
  -27.9925   20.1304  -28.0910 C   0  0  0  0  0  0  0  0  0  0  0  0
  -27.3810   20.9376  -29.1941 C   0  0  0  0  0  0  0  0  0  0  0  0
  -26.7544   20.3928  -30.2771 C   0  0  0  0  0  0  0  0  0  0  0  0
  -26.2214   21.1999  -31.2545 C   0  0  0  0  0  0  0  0  0  0  0  0
  -26.2920   22.5824  -31.1905 C   0  0  0  0  0  0  0  0  0  0  0  0
  -25.5791   23.5859  -32.4946 S   0  0  0  0  0  0  0  0  0  0  0  0
  -25.0701   22.4582  -33.8217 C   0  0  0  0  0  0  0  0  0  0  0  0
  -26.9259   23.1326  -30.0945 C   0  0  0  0  0  0  0  0  0  0  0  0
  -27.4564   22.3166  -29.1213 C   0  0  0  0  0  0  0  0  0  0  0  0
  1  2  1  0
  2  3  1  0
  3  4  1  0
  4  5  2  0
  4  6  1  0
  6  7  2  0
  7  8  1  0
  7  9  1  0
  9 10  2  0
 10 11  1  0
 11 12  1  0
 12 13  2  0
 13 14  1  0
 14 15  2  0
 15 16  1  0
 16 17  2  0
 17 18  1  0
 18 19  1  0
 19 20  1  0
 20 21  2  0
 20 22  1  0
 17 23  1  0
 23 24  2  0
 12 25  1  0
 25 26  2  0
 25 27  1  0
 27 28  1  0
 28 29  1  0
 29 30  2  0
 30 31  1  0
 31 32  2  0
 32 33  1  0
 33 34  1  0
 32 35  1  0
 35 36  2  0
 28  6  1  0
 36 29  1  0
 27 10  1  0
 24 14  1  0
M  END
$$$$
