
     RDKit          3D

 29 32  0  0  0  0  0  0  0  0999 V2000
  -30.7056   12.8581  -24.0963 C   0  0  0  0  0  0  0  0  0  0  0  0
  -32.1122   13.3117  -24.1788 C   0  0  2  0  0  0  0  0  0  0  0  0
  -32.9617   12.0621  -24.3307 C   0  0  0  0  0  0  0  0  0  0  0  0
  -34.3455   12.2059  -23.8022 C   0  0  0  0  0  0  0  0  0  0  0  0
  -35.2161   11.0031  -23.9826 C   0  0  0  0  0  0  0  0  0  0  0  0
  -36.6388   11.3725  -23.5738 C   0  0  0  0  0  0  0  0  0  0  0  0
  -37.5544   10.1830  -23.6575 C   0  0  0  0  0  0  0  0  0  0  0  0
  -37.1305   12.4538  -24.5255 C   0  0  0  0  0  0  0  0  0  0  0  0
  -36.6889   11.8820  -22.2925 O   0  0  0  0  0  0  0  0  0  0  0  0
  -32.4725   14.2277  -25.2746 C   0  0  1  0  0  0  0  0  0  0  0  0
  -33.6023   15.1293  -24.7484 C   0  0  0  0  0  0  0  0  0  0  0  0
  -33.2650   16.5401  -25.1891 C   0  0  0  0  0  0  0  0  0  0  0  0
  -32.3280   16.3005  -26.3019 C   0  0  1  0  0  0  0  0  0  0  0  0
  -31.5331   17.4742  -26.7836 C   0  0  2  0  0  0  0  0  0  0  0  0
  -32.3960   18.3880  -27.6248 C   0  0  0  0  0  0  0  0  0  0  0  0
  -31.6336   19.1801  -28.6208 C   0  0  0  0  0  0  0  0  0  0  0  0
  -30.3302   19.1607  -28.7498 C   0  0  0  0  0  0  0  0  0  0  0  0
  -29.6737   19.9844  -29.7705 C   0  0  0  0  0  0  0  0  0  0  0  0
  -28.2230   20.2300  -29.5671 C   0  0  1  0  0  0  0  0  0  0  0  0
  -27.9736   21.4502  -28.9110 O   0  0  0  0  0  0  0  0  0  0  0  0
  -27.4329   19.1472  -28.9362 C   0  0  0  0  0  0  0  0  0  0  0  0
  -28.1835   17.9548  -28.4582 C   0  0  0  0  0  0  0  0  0  0  0  0
  -29.5262   18.2970  -27.8602 C   0  0  1  0  0  0  0  0  0  0  0  0
  -29.2586   19.0601  -26.5791 C   0  0  0  0  0  0  0  0  0  0  0  0
  -30.3782   17.0697  -27.6308 C   0  0  1  0  0  0  0  0  0  0  0  0
  -29.5964   15.9022  -27.1183 C   0  0  0  0  0  0  0  0  0  0  0  0
  -30.6122   14.7723  -26.8882 C   0  0  0  0  0  0  0  0  0  0  0  0
  -31.4406   15.2052  -25.7282 C   0  0  2  0  0  0  0  0  0  0  0  0
  -30.6090   15.7232  -24.5877 C   0  0  0  0  0  0  0  0  0  0  0  0
  2  1  1  6
  2  3  1  0
  3  4  1  0
  4  5  1  0
  5  6  1  0
  6  7  1  0
  6  8  1  0
  6  9  1  0
  2 10  1  0
 10 11  1  1
 11 12  1  0
 13 12  1  1
 13 14  1  0
 14 15  1  6
 15 16  1  0
 16 17  2  0
 17 18  1  0
 18 19  1  0
 19 20  1  1
 19 21  1  0
 21 22  1  0
 22 23  1  0
 23 24  1  1
 23 25  1  0
 25 26  1  1
 26 27  1  0
 27 28  1  0
 28 29  1  1
 28 10  1  0
 28 13  1  0
 25 14  1  0
 23 17  1  0
M  END
$$$$
