
     RDKit          3D

 11 12  0  0  0  0  0  0  0  0999 V2000
  -17.9711   39.0264  -21.8692 O   0  0  0  0  0  0  0  0  0  0  0  0
  -18.0419   37.7750  -21.9301 C   0  0  0  0  0  0  0  0  0  0  0  0
  -16.9208   37.0764  -21.7104 N   0  0  0  0  0  0  0  0  0  0  0  0
  -16.9483   35.7374  -21.7650 C   0  0  0  0  0  0  0  0  0  0  0  0
  -15.9011   35.0877  -21.5596 O   0  0  0  0  0  0  0  0  0  0  0  0
  -18.1608   35.0992  -22.0534 C   0  0  0  0  0  0  0  0  0  0  0  0
  -18.4750   33.7618  -22.1707 C   0  0  0  0  0  0  0  0  0  0  0  0
  -19.7868   33.6981  -22.4598 N   0  0  0  0  0  0  0  0  0  0  0  0
  -20.2790   34.9435  -22.5222 N   0  0  0  0  0  0  0  0  0  0  0  0
  -19.3094   35.8229  -22.2783 C   0  0  0  0  0  0  0  0  0  0  0  0
  -19.2286   37.1576  -22.2121 N   0  0  0  0  0  0  0  0  0  0  0  0
  1  2  2  0
  2  3  1  0
  3  4  1  0
  4  5  2  0
  4  6  1  0
  6  7  1  0
  7  8  2  0
  8  9  1  0
  9 10  1  0
 10 11  1  0
 11  2  1  0
 10  6  2  0
M  END
$$$$
