
     RDKit          3D

  8  7  0  0  0  0  0  0  0  0999 V2000
  -16.4326   37.3424  -22.0904 N   0  0  0  0  0  0  0  0  0  0  0  0
  -17.6971   36.8998  -21.6259 C   0  0  0  0  0  0  0  0  0  0  0  0
  -18.0286   35.4874  -22.0385 C   0  0  2  0  0  0  0  0  0  0  0  0
  -17.7800   35.3608  -23.3909 O   0  0  0  0  0  0  0  0  0  0  0  0
  -19.4910   35.2721  -21.7781 C   0  0  0  0  0  0  0  0  0  0  0  0
  -19.7988   33.8491  -21.5224 C   0  0  0  0  0  0  0  0  0  0  0  0
  -19.4446   32.9884  -22.3771 O   0  0  0  0  0  0  0  0  0  0  0  0
  -20.4555   33.4075  -20.3793 O   0  0  0  0  0  0  0  0  0  0  0  0
  1  2  1  0
  2  3  1  0
  3  4  1  6
  3  5  1  0
  5  6  1  0
  6  7  2  0
  6  8  1  0
M  END
$$$$
