
     RDKit          3D

 22 25  0  0  0  0  0  0  0  0999 V2000
  -25.4634   29.7147  -37.6736 C   0  0  0  0  0  0  0  0  0  0  0  0
  -25.6345   28.6329  -36.6768 C   0  0  0  0  0  0  0  0  0  0  0  0
  -25.2683   27.3213  -36.6386 C   0  0  0  0  0  0  0  0  0  0  0  0
  -25.5641   26.5649  -35.5800 C   0  0  0  0  0  0  0  0  0  0  0  0
  -26.2527   27.1799  -34.5410 C   0  0  0  0  0  0  0  0  0  0  0  0
  -26.4758   28.8328  -35.0770 S   0  0  0  0  0  0  0  0  0  0  0  0
  -26.7156   26.6583  -33.2730 N   0  0  0  0  0  0  0  0  0  0  0  0
  -26.3869   25.4265  -32.6626 C   0  0  0  0  0  0  0  0  0  0  0  0
  -26.7935   25.3715  -31.3730 C   0  0  0  0  0  0  0  0  0  0  0  0
  -26.5579   24.2379  -30.5962 C   0  0  0  0  0  0  0  0  0  0  0  0
  -25.8993   23.1957  -31.2060 C   0  0  0  0  0  0  0  0  0  0  0  0
  -25.4897   23.2638  -32.5219 C   0  0  0  0  0  0  0  0  0  0  0  0
  -25.7347   24.3902  -33.2612 C   0  0  0  0  0  0  0  0  0  0  0  0
  -25.2432   24.2678  -34.5855 N   0  0  0  0  0  0  0  0  0  0  0  0
  -25.1669   25.1310  -35.5310 C   0  0  0  0  0  0  0  0  0  0  0  0
  -24.5973   24.5678  -36.7159 N   0  0  0  0  0  0  0  0  0  0  0  0
  -25.0296   25.0969  -37.9854 C   0  0  0  0  0  0  0  0  0  0  0  0
  -23.8114   25.1344  -38.8906 C   0  0  0  0  0  0  0  0  0  0  0  0
  -23.0965   23.9129  -38.9272 N   0  0  0  0  0  0  0  0  0  0  0  0
  -23.5370   22.9644  -39.8949 C   0  0  0  0  0  0  0  0  0  0  0  0
  -22.6664   23.3907  -37.6884 C   0  0  0  0  0  0  0  0  0  0  0  0
  -23.6377   23.5179  -36.5578 C   0  0  0  0  0  0  0  0  0  0  0  0
  1  2  1  0
  2  3  2  0
  3  4  1  0
  4  5  2  0
  5  6  1  0
  5  7  1  0
  7  8  1  0
  8  9  2  0
  9 10  1  0
 10 11  2  0
 11 12  1  0
 12 13  2  0
 13 14  1  0
 14 15  2  0
 15 16  1  0
 16 17  1  0
 17 18  1  0
 18 19  1  0
 19 20  1  0
 19 21  1  0
 21 22  1  0
  6  2  1  0
 13  8  1  0
 22 16  1  0
 15  4  1  0
M  END
$$$$
