
     RDKit          3D

 29 33  0  0  0  0  0  0  0  0999 V2000
  -23.0621   37.8170  -24.4585 O   0  0  0  0  0  0  0  0  0  0  0  0
  -21.8334   37.8485  -24.7764 C   0  0  0  0  0  0  0  0  0  0  0  0
  -20.7553   37.2110  -23.9790 C   0  0  0  0  0  0  0  0  0  0  0  0
  -19.4916   37.6833  -24.6677 C   0  0  0  0  0  0  0  0  0  0  0  0
  -18.8867   38.6849  -23.8281 N   0  0  0  0  0  0  0  0  0  0  0  0
  -18.8009   38.1310  -22.4888 C   0  0  0  0  0  0  0  0  0  0  0  0
  -17.3530   38.1846  -22.0246 C   0  0  0  0  0  0  0  0  0  0  0  0
  -16.8677   39.5156  -22.0841 N   0  0  0  0  0  0  0  0  0  0  0  0
  -17.4527   40.3466  -21.0706 C   0  0  0  0  0  0  0  0  0  0  0  0
  -16.7783   41.6542  -21.0428 C   0  0  0  0  0  0  0  0  0  0  0  0
  -15.5213   41.8993  -20.5443 C   0  0  0  0  0  0  0  0  0  0  0  0
  -14.9576   43.1720  -20.5631 C   0  0  0  0  0  0  0  0  0  0  0  0
  -15.6390   44.2436  -21.0844 C   0  0  0  0  0  0  0  0  0  0  0  0
  -16.9009   44.0275  -21.5912 C   0  0  0  0  0  0  0  0  0  0  0  0
  -17.4493   42.7657  -21.5679 C   0  0  0  0  0  0  0  0  0  0  0  0
  -17.3536   45.2763  -22.0491 O   0  0  0  0  0  0  0  0  0  0  0  0
  -16.5979   46.2897  -21.4068 C   0  0  0  0  0  0  0  0  0  0  0  0
  -15.3475   45.6070  -21.2416 O   0  0  0  0  0  0  0  0  0  0  0  0
  -17.0051   40.1263  -23.3847 C   0  0  0  0  0  0  0  0  0  0  0  0
  -17.6197   39.1385  -24.3258 C   0  0  0  0  0  0  0  0  0  0  0  0
  -19.8996   38.2599  -25.9506 C   0  0  0  0  0  0  0  0  0  0  0  0
  -19.1798   38.5291  -26.9411 O   0  0  0  0  0  0  0  0  0  0  0  0
  -21.2967   38.4866  -25.9242 N   0  0  0  0  0  0  0  0  0  0  0  0
  -22.0619   39.2214  -26.8699 C   0  0  0  0  0  0  0  0  0  0  0  0
  -23.2324   38.7612  -27.4309 C   0  0  0  0  0  0  0  0  0  0  0  0
  -23.9453   39.5095  -28.3458 C   0  0  0  0  0  0  0  0  0  0  0  0
  -23.4483   40.7464  -28.6880 C   0  0  0  0  0  0  0  0  0  0  0  0
  -22.2902   41.2393  -28.1541 C   0  0  0  0  0  0  0  0  0  0  0  0
  -21.5966   40.4654  -27.2382 C   0  0  0  0  0  0  0  0  0  0  0  0
  1  2  2  0
  2  3  1  0
  3  4  1  0
  4  5  1  0
  5  6  1  0
  6  7  1  0
  7  8  1  0
  8  9  1  0
  9 10  1  0
 10 11  2  0
 11 12  1  0
 12 13  2  0
 13 14  1  0
 14 15  2  0
 14 16  1  0
 16 17  1  0
 17 18  1  0
  8 19  1  0
 19 20  1  0
  4 21  1  0
 21 22  2  0
 21 23  1  0
 23 24  1  0
 24 25  2  0
 25 26  1  0
 26 27  2  0
 27 28  1  0
 28 29  2  0
 23  2  1  0
 29 24  1  0
 20  5  1  0
 15 10  1  0
 18 13  1  0
M  END
$$$$
