
     RDKit          3D

 31 34  0  0  0  0  0  0  0  0999 V2000
  -19.6948   16.3251  -33.4767 O   0  0  0  0  0  0  0  0  0  0  0  0
  -19.8371   17.4709  -33.0139 C   0  0  0  0  0  0  0  0  0  0  0  0
  -21.1517   17.9520  -32.8265 N   0  0  0  0  0  0  0  0  0  0  0  0
  -22.3608   17.2820  -33.0699 C   0  0  0  0  0  0  0  0  0  0  0  0
  -23.2455   17.1215  -32.0154 C   0  0  0  0  0  0  0  0  0  0  0  0
  -24.4319   16.4612  -32.1200 C   0  0  0  0  0  0  0  0  0  0  0  0
  -24.8031   15.9006  -33.3544 C   0  0  0  0  0  0  0  0  0  0  0  0
  -25.9771   15.2320  -33.4920 O   0  0  0  0  0  0  0  0  0  0  0  0
  -26.2498   13.9842  -32.9468 C   0  0  0  0  0  0  0  0  0  0  0  0
  -25.4220   12.9932  -33.4944 F   0  0  0  0  0  0  0  0  0  0  0  0
  -27.5838   13.6812  -33.2472 F   0  0  0  0  0  0  0  0  0  0  0  0
  -26.1446   13.9957  -31.5770 F   0  0  0  0  0  0  0  0  0  0  0  0
  -23.9363   16.0543  -34.3984 C   0  0  0  0  0  0  0  0  0  0  0  0
  -22.7255   16.7375  -34.2645 C   0  0  0  0  0  0  0  0  0  0  0  0
  -18.6574   18.2599  -32.6905 C   0  0  0  0  0  0  0  0  0  0  0  0
  -18.7875   19.9430  -32.0356 S   0  0  0  0  0  0  0  0  0  0  0  0
  -17.1087   20.2325  -31.8472 C   0  0  0  0  0  0  0  0  0  0  0  0
  -16.5216   19.0633  -32.2805 C   0  0  0  0  0  0  0  0  0  0  0  0
  -17.3257   18.0655  -32.7077 C   0  0  0  0  0  0  0  0  0  0  0  0
  -16.7692   16.8469  -33.2290 N   0  0  0  0  0  0  0  0  0  0  0  0
  -15.5481   16.1629  -33.0872 C   0  0  0  0  0  0  0  0  0  0  0  0
  -15.3837   15.0556  -32.2161 C   0  0  0  0  0  0  0  0  0  0  0  0
  -16.4467   14.1395  -32.1145 C   0  0  0  0  0  0  0  0  0  0  0  0
  -16.3599   13.0020  -31.3515 C   0  0  0  0  0  0  0  0  0  0  0  0
  -15.2139   12.7436  -30.6670 N   0  0  0  0  0  0  0  0  0  0  0  0
  -14.1746   13.5779  -30.7236 C   0  0  0  0  0  0  0  0  0  0  0  0
  -13.0146   13.3321  -30.0163 C   0  0  0  0  0  0  0  0  0  0  0  0
  -11.9660   14.2149  -30.0756 C   0  0  0  0  0  0  0  0  0  0  0  0
  -12.0231   15.3772  -30.8378 C   0  0  0  0  0  0  0  0  0  0  0  0
  -13.1884   15.6383  -31.5599 C   0  0  0  0  0  0  0  0  0  0  0  0
  -14.2398   14.7403  -31.4934 C   0  0  0  0  0  0  0  0  0  0  0  0
  1  2  2  0
  2  3  1  0
  3  4  1  0
  4  5  2  0
  5  6  1  0
  6  7  2  0
  7  8  1  0
  8  9  1  0
  9 10  1  0
  9 11  1  0
  9 12  1  0
  7 13  1  0
 13 14  2  0
  2 15  1  0
 15 16  1  0
 16 17  1  0
 17 18  2  0
 18 19  1  0
 19 20  1  0
 20 21  1  0
 21 22  1  0
 22 23  2  0
 23 24  1  0
 24 25  2  0
 25 26  1  0
 26 27  2  0
 27 28  1  0
 28 29  2  0
 29 30  1  0
 30 31  2  0
 14  4  1  0
 19 15  2  0
 31 22  1  0
 31 26  1  0
M  END
$$$$
