
     RDKit          3D

 30 33  0  0  0  0  0  0  0  0999 V2000
  -17.2106   40.1850  -19.7208 O   0  0  0  0  0  0  0  0  0  0  0  0
  -17.6442   40.6880  -20.7881 C   0  0  0  0  0  0  0  0  0  0  0  0
  -17.5483   42.0524  -20.9645 C   0  0  0  0  0  0  0  0  0  0  0  0
  -16.9981   42.8916  -20.0235 C   0  0  0  0  0  0  0  0  0  0  0  0
  -16.9046   44.2587  -20.2061 C   0  0  0  0  0  0  0  0  0  0  0  0
  -16.3459   45.1011  -19.2479 O   0  0  0  0  0  0  0  0  0  0  0  0
  -17.3921   44.7700  -21.3909 C   0  0  0  0  0  0  0  0  0  0  0  0
  -17.3158   46.1559  -21.6154 O   0  0  0  0  0  0  0  0  0  0  0  0
  -17.9437   43.9283  -22.3342 C   0  0  0  0  0  0  0  0  0  0  0  0
  -18.0379   42.5567  -22.1520 C   0  0  0  0  0  0  0  0  0  0  0  0
  -18.5657   41.7697  -23.0598 O   0  0  0  0  0  0  0  0  0  0  0  0
  -18.6775   40.4720  -22.9356 C   0  0  0  0  0  0  0  0  0  0  0  0
  -19.2490   39.7139  -23.9448 C   0  0  0  0  0  0  0  0  0  0  0  0
  -19.3645   38.3465  -23.8093 C   0  0  0  0  0  0  0  0  0  0  0  0
  -19.9413   37.5603  -24.8221 O   0  0  0  0  0  0  0  0  0  0  0  0
  -18.8926   37.7821  -22.6431 C   0  0  0  0  0  0  0  0  0  0  0  0
  -19.0103   36.3114  -22.4831 C   0  0  2  0  0  0  0  0  0  0  0  0
  -19.9238   36.0727  -21.4775 O   0  0  0  0  0  0  0  0  0  0  0  0
  -20.3090   34.7463  -21.3860 C   0  0  2  0  0  0  0  0  0  0  0  0
  -20.6118   34.4495  -19.9377 C   0  0  0  0  0  0  0  0  0  0  0  0
  -20.9557   35.6087  -19.2360 O   0  0  0  0  0  0  0  0  0  0  0  0
  -19.3724   33.7884  -22.0205 C   0  0  1  0  0  0  0  0  0  0  0  0
  -19.7810   33.5265  -23.3278 O   0  0  0  0  0  0  0  0  0  0  0  0
  -17.9340   34.1869  -21.9869 C   0  0  2  0  0  0  0  0  0  0  0  0
  -17.2526   33.6566  -20.8708 O   0  0  0  0  0  0  0  0  0  0  0  0
  -17.7072   35.6650  -22.1335 C   0  0  1  0  0  0  0  0  0  0  0  0
  -16.7921   35.9521  -23.1557 O   0  0  0  0  0  0  0  0  0  0  0  0
  -18.3229   38.5309  -21.6351 C   0  0  0  0  0  0  0  0  0  0  0  0
  -17.8452   37.9415  -20.4494 O   0  0  0  0  0  0  0  0  0  0  0  0
  -18.2071   39.8987  -21.7701 C   0  0  0  0  0  0  0  0  0  0  0  0
  1  2  2  0
  2  3  1  0
  3  4  2  0
  4  5  1  0
  5  6  1  0
  5  7  2  0
  7  8  1  0
  7  9  1  0
  9 10  2  0
 10 11  1  0
 11 12  1  0
 12 13  2  0
 13 14  1  0
 14 15  1  0
 14 16  2  0
 17 16  1  1
 17 18  1  0
 18 19  1  0
 19 20  1  1
 20 21  1  0
 19 22  1  0
 22 23  1  6
 22 24  1  0
 24 25  1  1
 24 26  1  0
 26 27  1  6
 16 28  1  0
 28 29  1  0
 28 30  2  0
 30  2  1  0
 10  3  1  0
 30 12  1  0
 26 17  1  0
M  END
$$$$
