
     RDKit          3D

 40 41  0  0  0  0  0  0  0  0999 V2000
  -19.9134   19.4342  -35.6385 C   0  0  0  0  0  0  0  0  0  0  0  0
  -20.7179   18.8495  -36.7952 C   0  0  2  0  0  0  0  0  0  0  0  0
  -19.8293   18.3435  -37.8049 N   0  0  0  0  0  0  0  0  0  0  0  0
  -18.5389   18.8943  -38.0069 C   0  0  0  0  0  0  0  0  0  0  0  0
  -18.1272   19.8688  -37.3421 O   0  0  0  0  0  0  0  0  0  0  0  0
  -17.6195   18.3310  -39.0236 C   0  0  0  0  0  0  0  0  0  0  0  0
  -18.0697   17.4607  -39.7976 O   0  0  0  0  0  0  0  0  0  0  0  0
  -16.2779   18.7643  -39.1141 N   0  0  0  0  0  0  0  0  0  0  0  0
  -15.2910   18.3281  -39.9879 C   0  0  0  0  0  0  0  0  0  0  0  0
  -14.1220   17.7677  -39.5431 C   0  0  0  0  0  0  0  0  0  0  0  0
  -13.1082   17.3200  -40.3946 C   0  0  0  0  0  0  0  0  0  0  0  0
  -13.3066   17.4549  -41.7429 C   0  0  0  0  0  0  0  0  0  0  0  0
  -14.4986   18.0261  -42.1930 C   0  0  0  0  0  0  0  0  0  0  0  0
  -15.4986   18.4673  -41.3589 C   0  0  0  0  0  0  0  0  0  0  0  0
  -16.7234   19.0361  -41.9592 C   0  0  0  0  0  0  0  0  0  0  0  0
  -16.4073   19.6844  -43.3132 C   0  0  0  0  0  0  0  0  0  0  0  0
  -17.8416   18.0447  -42.1075 C   0  0  0  0  0  0  0  0  0  0  0  0
  -17.2433   20.1409  -41.0451 C   0  0  0  0  0  0  0  0  0  0  0  0
  -21.5892   19.9228  -37.3906 C   0  0  0  0  0  0  0  0  0  0  0  0
  -22.5851   19.5789  -38.0713 O   0  0  0  0  0  0  0  0  0  0  0  0
  -21.2932   21.2822  -37.1882 N   0  0  0  0  0  0  0  0  0  0  0  0
  -22.1840   22.3914  -37.5722 C   0  0  1  0  0  0  0  0  0  0  0  0
  -22.4952   23.2507  -36.4124 C   0  0  0  0  0  0  0  0  0  0  0  0
  -21.5150   24.2674  -36.0519 C   0  0  0  0  0  0  0  0  0  0  0  0
  -21.4456   24.6124  -34.8186 O   0  0  0  0  0  0  0  0  0  0  0  0
  -20.6350   24.9169  -36.8894 O   0  0  0  0  0  0  0  0  0  0  0  0
  -21.8043   22.9747  -38.8439 C   0  0  0  0  0  0  0  0  0  0  0  0
  -20.7831   23.7585  -38.7208 O   0  0  0  0  0  0  0  0  0  0  0  0
  -22.2554   22.9104  -40.2157 C   0  0  0  0  0  0  0  0  0  0  0  0
  -21.6747   22.5306  -41.3125 O   0  0  0  0  0  0  0  0  0  0  0  0
  -20.6212   22.2797  -42.0665 C   0  0  0  0  0  0  0  0  0  0  0  0
  -19.3184   22.5748  -41.6019 C   0  0  0  0  0  0  0  0  0  0  0  0
  -19.2393   23.1092  -40.3636 F   0  0  0  0  0  0  0  0  0  0  0  0
  -18.1960   22.3501  -42.3233 C   0  0  0  0  0  0  0  0  0  0  0  0
  -16.9486   22.6350  -41.8730 F   0  0  0  0  0  0  0  0  0  0  0  0
  -18.2892   21.8056  -43.5828 C   0  0  0  0  0  0  0  0  0  0  0  0
  -19.5306   21.5102  -44.0628 C   0  0  0  0  0  0  0  0  0  0  0  0
  -19.6635   20.9750  -45.2943 F   0  0  0  0  0  0  0  0  0  0  0  0
  -20.6926   21.7403  -43.3253 C   0  0  0  0  0  0  0  0  0  0  0  0
  -21.9043   21.4925  -43.8990 F   0  0  0  0  0  0  0  0  0  0  0  0
  2  1  1  1
  2  3  1  0
  3  4  1  0
  4  5  2  0
  4  6  1  0
  6  7  2  0
  6  8  1  0
  8  9  1  0
  9 10  2  0
 10 11  1  0
 11 12  2  0
 12 13  1  0
 13 14  2  0
 14 15  1  0
 15 16  1  0
 15 17  1  0
 15 18  1  0
  2 19  1  0
 19 20  2  0
 19 21  1  0
 21 22  1  0
 22 23  1  1
 23 24  1  0
 24 25  2  0
 24 26  1  0
 22 27  1  0
 27 28  2  0
 27 29  1  0
 29 30  1  0
 30 31  1  0
 31 32  2  0
 32 33  1  0
 32 34  1  0
 34 35  1  0
 34 36  2  0
 36 37  1  0
 37 38  1  0
 37 39  2  0
 39 40  1  0
 14  9  1  0
 39 31  1  0
M  END
$$$$
