
     RDKit          3D

 23 23  0  0  0  0  0  0  0  0999 V2000
  -18.0474   13.7865  -31.9758 C   0  0  0  0  0  0  0  0  0  0  0  0
  -17.4586   15.0335  -31.9006 N   0  0  0  0  0  0  0  0  0  0  0  0
  -16.0656   15.2006  -31.9341 C   0  0  0  0  0  0  0  0  0  0  0  0
  -15.3712   14.6499  -30.7231 C   0  0  0  0  0  0  0  0  0  0  0  0
  -14.4586   13.6966  -30.7789 C   0  0  0  0  0  0  0  0  0  0  0  0
  -13.7975   13.1705  -29.6141 C   0  0  0  0  0  0  0  0  0  0  0  0
  -13.2372   12.7386  -28.6363 C   0  0  0  0  0  0  0  0  0  0  0  0
  -12.5739   12.2214  -27.4387 C   0  0  0  0  0  0  0  0  0  0  0  0
  -13.2528   12.6871  -26.1743 C   0  0  0  0  0  0  0  0  0  0  0  0
  -11.1416   12.6537  -27.5072 C   0  0  0  0  0  0  0  0  0  0  0  0
  -12.6084   10.6892  -27.4232 C   0  0  0  0  0  0  0  0  0  0  0  0
  -18.1685   16.2416  -32.0446 C   0  0  0  0  0  0  0  0  0  0  0  0
  -19.0358   16.3793  -33.2080 C   0  0  0  0  0  0  0  0  0  0  0  0
  -18.5054   16.9467  -34.3424 C   0  0  0  0  0  0  0  0  0  0  0  0
  -19.2266   17.0547  -35.5168 C   0  0  0  0  0  0  0  0  0  0  0  0
  -20.5074   16.5662  -35.4988 C   0  0  0  0  0  0  0  0  0  0  0  0
  -21.0733   15.9946  -34.3875 C   0  0  0  0  0  0  0  0  0  0  0  0
  -22.3650   15.5234  -34.3711 C   0  0  0  0  0  0  0  0  0  0  0  0
  -22.9516   14.9670  -33.2620 C   0  0  0  0  0  0  0  0  0  0  0  0
  -22.2008   14.8868  -32.1281 C   0  0  0  0  0  0  0  0  0  0  0  0
  -20.9076   15.3460  -32.1065 C   0  0  0  0  0  0  0  0  0  0  0  0
  -20.3219   15.9031  -33.2271 C   0  0  0  0  0  0  0  0  0  0  0  0
  -16.3518   14.1539  -30.6744 Cl  0  0  0  0  0  0  0  0  0  0  0  0
  1  2  1  0
  2  3  1  0
  3  4  1  0
  4  5  2  0
  5  6  1  0
  6  7  3  0
  7  8  1  0
  8  9  1  0
  8 10  1  0
  8 11  1  0
  2 12  1  0
 12 13  1  0
 13 14  2  0
 14 15  1  0
 15 16  2  0
 16 17  1  0
 17 18  2  0
 18 19  1  0
 19 20  2  0
 20 21  1  0
 21 22  2  0
 22 13  1  0
 22 17  1  0
M  END
$$$$
