
     RDKit          3D

 14 15  0  0  0  0  0  0  0  0999 V2000
  -50.6053   27.3783  -22.9249 C   0  0  0  0  0  0  0  0  0  0  0  0
  -50.9893   26.1046  -22.1594 C   0  0  2  0  0  0  0  0  0  0  0  0
  -52.0443   25.5019  -22.7820 O   0  0  0  0  0  0  0  0  0  0  0  0
  -52.8401   24.8601  -21.8896 C   0  0  1  0  0  0  0  0  0  0  0  0
  -53.3636   25.8965  -20.8888 C   0  0  0  0  0  0  0  0  0  0  0  0
  -51.7477   26.7346  -20.6030 S   0  0  0  0  0  0  0  0  0  0  0  0
  -54.0107   24.2585  -22.6413 C   0  0  0  0  0  0  0  0  0  0  0  0
  -53.8023   22.8273  -22.8459 N   0  0  0  0  0  0  0  0  0  0  0  0
  -53.9153   22.0953  -21.5965 C   0  0  0  0  0  0  0  0  0  0  0  0
  -53.2201   22.8609  -20.4719 C   0  0  0  0  0  0  0  0  0  0  0  0
  -52.1724   23.7335  -21.1407 C   0  0  0  0  0  0  0  0  0  0  0  0
  -51.5086   22.8279  -22.1861 C   0  0  0  0  0  0  0  0  0  0  0  0
  -52.4402   22.5782  -23.3364 C   0  0  0  0  0  0  0  0  0  0  0  0
  -52.3240   24.9472  -22.2100 Cl  0  0  0  0  0  0  0  0  0  0  0  0
  2  1  1  6
  2  3  1  0
  3  4  1  0
  4  5  1  1
  5  6  1  0
  4  7  1  0
  7  8  1  0
  8  9  1  0
  9 10  1  0
 10 11  1  0
 11 12  1  0
 12 13  1  0
  6  2  1  0
 13  8  1  0
 11  4  1  0
M  END
$$$$
