
     RDKit          3D

 26 29  0  0  0  0  0  0  0  0999 V2000
  -20.3152   20.3687  -38.1082 C   0  0  0  0  0  0  0  0  0  0  0  0
  -20.9702   19.4800  -37.2081 N   0  0  0  0  0  0  0  0  0  0  0  0
  -22.2893   19.8751  -36.8204 C   0  0  0  0  0  0  0  0  0  0  0  0
  -22.6499   19.1430  -35.5264 C   0  0  0  0  0  0  0  0  0  0  0  0
  -21.9259   17.7846  -35.5272 C   0  0  0  0  0  0  0  0  0  0  0  0
  -22.3675   16.9675  -34.4239 C   0  0  0  0  0  0  0  0  0  0  0  0
  -23.7272   16.6993  -34.1894 C   0  0  0  0  0  0  0  0  0  0  0  0
  -23.8207   15.9210  -33.1080 N   0  0  0  0  0  0  0  0  0  0  0  0
  -22.6097   15.6573  -32.6124 C   0  0  0  0  0  0  0  0  0  0  0  0
  -22.1539   14.9174  -31.5280 C   0  0  0  0  0  0  0  0  0  0  0  0
  -20.7983   14.8517  -31.2954 C   0  0  0  0  0  0  0  0  0  0  0  0
  -19.8716   15.4892  -32.0931 C   0  0  0  0  0  0  0  0  0  0  0  0
  -18.4760   15.3876  -31.8061 N   0  0  0  0  0  0  0  0  0  0  0  0
  -17.5038   15.1083  -32.7751 C   0  0  0  0  0  0  0  0  0  0  0  0
  -17.8281   15.2629  -33.9840 O   0  0  0  0  0  0  0  0  0  0  0  0
  -16.1460   14.6518  -32.4673 C   0  0  0  0  0  0  0  0  0  0  0  0
  -15.8988   13.8977  -31.3392 C   0  0  0  0  0  0  0  0  0  0  0  0
  -14.6348   13.4418  -31.0033 C   0  0  0  0  0  0  0  0  0  0  0  0
  -13.5562   13.7378  -31.8110 C   0  0  0  0  0  0  0  0  0  0  0  0
  -12.3039   13.3044  -31.5075 F   0  0  0  0  0  0  0  0  0  0  0  0
  -13.7921   14.4898  -32.9394 C   0  0  0  0  0  0  0  0  0  0  0  0
  -15.0714   14.9458  -33.2707 C   0  0  0  0  0  0  0  0  0  0  0  0
  -20.3393   16.2232  -33.1703 C   0  0  0  0  0  0  0  0  0  0  0  0
  -21.6905   16.3046  -33.4244 C   0  0  0  0  0  0  0  0  0  0  0  0
  -21.9895   17.2829  -36.9065 C   0  0  0  0  0  0  0  0  0  0  0  0
  -20.9554   18.0974  -37.7178 C   0  0  0  0  0  0  0  0  0  0  0  0
  1  2  1  0
  2  3  1  0
  3  4  1  0
  4  5  1  0
  5  6  1  0
  6  7  2  0
  7  8  1  0
  8  9  1  0
  9 10  2  0
 10 11  1  0
 11 12  2  0
 12 13  1  0
 13 14  1  0
 14 15  2  0
 14 16  1  0
 16 17  2  0
 17 18  1  0
 18 19  2  0
 19 20  1  0
 19 21  1  0
 21 22  2  0
 12 23  1  0
 23 24  2  0
  5 25  1  0
 25 26  1  0
 26  2  1  0
 24  6  1  0
 24  9  1  0
 22 16  1  0
M  END
$$$$
