
     RDKit          3D

 26 28  0  0  0  0  0  0  0  0999 V2000
  -21.8931   14.6823  -23.7751 C   0  0  0  0  0  0  0  0  0  0  0  0
  -23.2423   14.0458  -23.9834 C   0  0  0  0  0  0  0  0  0  0  0  0
  -23.0877   12.9262  -24.9932 C   0  0  0  0  0  0  0  0  0  0  0  0
  -23.7412   13.4956  -22.6917 C   0  0  0  0  0  0  0  0  0  0  0  0
  -25.0940   12.8414  -22.8279 C   0  0  0  0  0  0  0  0  0  0  0  0
  -26.1334   13.7770  -23.3821 C   0  0  0  0  0  0  0  0  0  0  0  0
  -26.9311   14.3820  -22.2493 C   0  0  0  0  0  0  0  0  0  0  0  0
  -27.0947   13.0297  -24.2807 C   0  0  0  0  0  0  0  0  0  0  0  0
  -25.5630   14.8782  -24.1860 C   0  0  0  0  0  0  0  0  0  0  0  0
  -26.4889   15.8173  -24.6665 C   0  0  0  0  0  0  0  0  0  0  0  0
  -26.0981   16.8954  -25.4259 C   0  0  0  0  0  0  0  0  0  0  0  0
  -27.0305   17.8638  -25.9244 N   0  0  0  0  0  0  0  0  0  0  0  0
  -28.1243   17.4814  -26.7203 C   0  0  0  0  0  0  0  0  0  0  0  0
  -28.4285   16.2687  -26.7670 O   0  0  0  0  0  0  0  0  0  0  0  0
  -28.8867   18.4418  -27.4687 C   0  0  0  0  0  0  0  0  0  0  0  0
  -28.5259   19.7583  -27.6337 C   0  0  0  0  0  0  0  0  0  0  0  0
  -29.2763   20.6545  -28.3558 C   0  0  0  0  0  0  0  0  0  0  0  0
  -30.4398   20.2303  -28.9439 C   0  0  0  0  0  0  0  0  0  0  0  0
  -31.2679   21.1454  -29.7192 C   0  0  0  0  0  0  0  0  0  0  0  0
  -30.9185   22.3420  -29.8586 O   0  0  0  0  0  0  0  0  0  0  0  0
  -32.4399   20.7183  -30.3088 O   0  0  0  0  0  0  0  0  0  0  0  0
  -30.8695   18.9063  -28.8190 C   0  0  0  0  0  0  0  0  0  0  0  0
  -30.0780   18.0552  -28.0848 C   0  0  0  0  0  0  0  0  0  0  0  0
  -24.7576   17.0340  -25.7081 C   0  0  0  0  0  0  0  0  0  0  0  0
  -23.8456   16.1211  -25.2429 C   0  0  0  0  0  0  0  0  0  0  0  0
  -24.2367   15.0346  -24.4780 C   0  0  0  0  0  0  0  0  0  0  0  0
  1  2  1  0
  2  3  1  0
  2  4  1  0
  4  5  1  0
  5  6  1  0
  6  7  1  0
  6  8  1  0
  6  9  1  0
  9 10  2  0
 10 11  1  0
 11 12  1  0
 12 13  1  0
 13 14  2  0
 13 15  1  0
 15 16  2  0
 16 17  1  0
 17 18  2  0
 18 19  1  0
 19 20  2  0
 19 21  1  0
 18 22  1  0
 22 23  2  0
 11 24  2  0
 24 25  1  0
 25 26  2  0
 26  2  1  0
 26  9  1  0
 23 15  1  0
M  END
$$$$
