
     RDKit          3D

 23 25  0  0  0  0  0  0  0  0999 V2000
  -17.1403   39.4392  -22.3992 N   0  0  0  0  0  0  0  0  0  0  0  0
  -17.8936   38.8294  -23.0544 C   0  0  0  0  0  0  0  0  0  0  0  0
  -18.8123   38.1071  -23.8662 C   0  0  0  0  0  0  0  0  0  0  0  0
  -18.6133   36.7903  -24.0619 C   0  0  0  0  0  0  0  0  0  0  0  0
  -18.4276   35.9087  -22.9522 C   0  0  0  0  0  0  0  0  0  0  0  0
  -17.2010   35.8413  -22.3028 C   0  0  0  0  0  0  0  0  0  0  0  0
  -17.0611   34.9991  -21.2263 C   0  0  0  0  0  0  0  0  0  0  0  0
  -18.1246   34.2234  -20.7890 C   0  0  0  0  0  0  0  0  0  0  0  0
  -17.9115   33.3901  -19.6901 O   0  0  0  0  0  0  0  0  0  0  0  0
  -19.3248   34.2972  -21.4342 C   0  0  0  0  0  0  0  0  0  0  0  0
  -20.3923   33.5028  -20.9771 O   0  0  0  0  0  0  0  0  0  0  0  0
  -19.4922   35.1346  -22.5162 C   0  0  0  0  0  0  0  0  0  0  0  0
  -19.9469   38.6756  -24.5725 C   0  0  0  0  0  0  0  0  0  0  0  0
  -20.8559   39.2884  -23.9437 O   0  0  0  0  0  0  0  0  0  0  0  0
  -20.0722   38.5591  -25.9844 N   0  0  0  0  0  0  0  0  0  0  0  0
  -19.2957   37.8279  -26.9532 C   0  0  0  0  0  0  0  0  0  0  0  0
  -19.3382   38.7779  -28.1504 C   0  0  0  0  0  0  0  0  0  0  0  0
  -20.6709   39.3722  -28.0811 C   0  0  0  0  0  0  0  0  0  0  0  0
  -21.4644   39.9794  -29.0337 C   0  0  0  0  0  0  0  0  0  0  0  0
  -22.6809   40.4713  -28.6361 C   0  0  0  0  0  0  0  0  0  0  0  0
  -23.0899   40.3565  -27.3174 C   0  0  0  0  0  0  0  0  0  0  0  0
  -22.3008   39.7510  -26.3674 C   0  0  0  0  0  0  0  0  0  0  0  0
  -21.0750   39.2543  -26.7636 C   0  0  0  0  0  0  0  0  0  0  0  0
  1  2  3  0
  2  3  1  0
  3  4  2  0
  4  5  1  0
  5  6  2  0
  6  7  1  0
  7  8  2  0
  8  9  1  0
  8 10  1  0
 10 11  1  0
 10 12  2  0
  3 13  1  0
 13 14  2  0
 13 15  1  0
 15 16  1  0
 16 17  1  0
 17 18  1  0
 18 19  2  0
 19 20  1  0
 20 21  2  0
 21 22  1  0
 22 23  2  0
 12  5  1  0
 23 15  1  0
 23 18  1  0
M  END
$$$$
