
     RDKit          3D

 22 25  0  0  0  0  0  0  0  0999 V2000
  -19.6490   35.3808  -21.0881 C   0  0  0  0  0  0  0  0  0  0  0  0
  -19.5288   36.4822  -22.0884 C   0  0  0  0  0  0  0  0  0  0  0  0
  -19.7181   36.4673  -23.4404 C   0  0  0  0  0  0  0  0  0  0  0  0
  -19.5068   37.6603  -23.9339 O   0  0  0  0  0  0  0  0  0  0  0  0
  -19.1789   38.4981  -22.9746 C   0  0  0  0  0  0  0  0  0  0  0  0
  -19.1797   37.7988  -21.7898 C   0  0  0  0  0  0  0  0  0  0  0  0
  -18.8499   38.4770  -20.5455 C   0  0  0  0  0  0  0  0  0  0  0  0
  -18.8589   37.8137  -19.4822 O   0  0  0  0  0  0  0  0  0  0  0  0
  -18.5123   39.9056  -20.5208 C   0  0  0  0  0  0  0  0  0  0  0  0
  -18.2322   40.4667  -19.4411 O   0  0  0  0  0  0  0  0  0  0  0  0
  -18.5217   40.6142  -21.7945 C   0  0  0  0  0  0  0  0  0  0  0  0
  -18.8424   39.9345  -22.9710 C   0  0  0  0  0  0  0  0  0  0  0  0
  -18.8517   40.5945  -24.1730 C   0  0  0  0  0  0  0  0  0  0  0  0
  -18.5427   41.9250  -24.1992 C   0  0  0  0  0  0  0  0  0  0  0  0
  -18.2232   42.6197  -23.0571 C   0  0  0  0  0  0  0  0  0  0  0  0
  -18.2112   41.9659  -21.8446 C   0  0  0  0  0  0  0  0  0  0  0  0
  -17.8777   42.6635  -20.5695 C   0  0  0  0  0  0  0  0  0  0  0  0
  -17.6125   44.1279  -20.7710 C   0  0  0  0  0  0  0  0  0  0  0  0
  -16.8612   44.3157  -22.0475 C   0  0  0  0  0  0  0  0  0  0  0  0
  -17.8881   44.0901  -23.1654 C   0  0  0  0  0  0  0  0  0  0  0  0
  -19.1563   44.8526  -22.9195 C   0  0  0  0  0  0  0  0  0  0  0  0
  -17.3372   44.4203  -24.5122 C   0  0  0  0  0  0  0  0  0  0  0  0
  1  2  1  0
  2  3  2  0
  3  4  1  0
  4  5  1  0
  5  6  2  0
  6  7  1  0
  7  8  2  0
  7  9  1  0
  9 10  2  0
  9 11  1  0
 11 12  2  0
 12 13  1  0
 13 14  2  0
 14 15  1  0
 15 16  2  0
 16 17  1  0
 17 18  1  0
 18 19  1  0
 19 20  1  0
 20 21  1  0
 20 22  1  0
  6  2  1  0
 16 11  1  0
 12  5  1  0
 20 15  1  0
M  END
$$$$
