
     RDKit          3D

 14 13  0  0  0  0  0  0  0  0999 V2000
  -11.8490   -3.2234  -35.1171 C   0  0  0  0  0  0  0  0  0  0  0  0
  -11.7157   -2.6477  -33.8032 N   0  0  0  0  0  0  0  0  0  0  0  0
  -10.7146   -3.1266  -32.8654 C   0  0  0  0  0  0  0  0  0  0  0  0
  -12.5692   -1.5876  -33.3904 C   0  0  0  0  0  0  0  0  0  0  0  0
  -13.4547   -1.1390  -34.1732 O   0  0  0  0  0  0  0  0  0  0  0  0
  -12.4781   -1.0089  -32.1477 O   0  0  0  0  0  0  0  0  0  0  0  0
  -13.2929    0.0238  -31.7153 C   0  0  0  0  0  0  0  0  0  0  0  0
  -12.8794    1.3151  -31.9482 C   0  0  0  0  0  0  0  0  0  0  0  0
  -13.6990    2.3513  -31.5132 C   0  0  0  0  0  0  0  0  0  0  0  0
  -14.8654    2.0019  -30.8807 C   0  0  0  0  0  0  0  0  0  0  0  0
  -15.2420    0.7302  -30.6678 N   0  0  0  0  0  4  0  0  0  0  0  0
  -16.4920    0.4588  -29.9907 C   0  0  0  0  0  0  0  0  0  0  0  0
  -14.4680   -0.2915  -31.0783 C   0  0  0  0  0  0  0  0  0  0  0  0
  -13.3541   -0.7000  -32.2570 Br  0  0  0  0  0 15  0  0  0  0  0  0
  1  2  1  0
  2  3  1  0
  2  4  1  0
  4  5  2  0
  4  6  1  0
  6  7  1  0
  7  8  2  0
  8  9  1  0
  9 10  2  0
 10 11  1  0
 11 12  1  0
 11 13  2  0
 13  7  1  0
M  CHG  2  11   1  14  -1
M  END
$$$$
