
     RDKit          3D

 31 34  0  0  0  0  0  0  0  0999 V2000
  -20.1498   31.4316  -21.9729 C   0  0  0  0  0  0  0  0  0  0  0  0
  -20.3042   32.4091  -20.8999 N   0  0  0  0  0  0  0  0  0  0  0  0
  -21.2178   32.2480  -19.9557 N   0  0  0  0  0  0  0  0  0  0  0  0
  -21.0852   33.2490  -19.1333 N   0  0  0  0  0  0  0  0  0  0  0  0
  -20.1270   34.0364  -19.5177 N   0  0  0  0  0  0  0  0  0  0  0  0
  -19.6039   33.5215  -20.6558 C   0  0  0  0  0  0  0  0  0  0  0  0
  -18.3009   34.2023  -21.6423 S   0  0  0  0  0  0  0  0  0  0  0  0
  -18.8901   35.1801  -23.0425 C   0  0  0  0  0  0  0  0  0  0  0  0
  -18.5589   36.5831  -23.0504 C   0  0  0  0  0  0  0  0  0  0  0  0
  -17.7586   37.1417  -22.1756 C   0  0  0  0  0  0  0  0  0  0  0  0
  -17.0975   36.4377  -21.0986 C   0  0  0  0  0  0  0  0  0  0  0  0
  -15.9132   36.0725  -21.1866 O   0  0  0  0  0  0  0  0  0  0  0  0
  -17.7081   36.1075  -19.8819 O   0  0  0  0  0  0  0  0  0  0  0  0
  -17.4865   38.5646  -22.2331 N   0  0  0  0  0  0  0  0  0  0  0  0
  -16.6331   39.7049  -22.2595 C   0  0  0  0  0  0  0  0  0  0  0  0
  -15.4665   39.8649  -21.8242 O   0  0  0  0  0  0  0  0  0  0  0  0
  -17.6727   40.5031  -22.9645 C   0  0  0  0  0  0  0  0  0  0  0  0
  -17.8310   41.8642  -22.5509 N   0  0  0  0  0  0  0  0  0  0  0  0
  -18.5951   42.8197  -23.3014 C   0  0  0  0  0  0  0  0  0  0  0  0
  -19.2248   42.3461  -24.2742 O   0  0  0  0  0  0  0  0  0  0  0  0
  -18.6596   44.2382  -22.9914 C   0  0  0  0  0  0  0  0  0  0  0  0
  -19.4037   44.8790  -24.0126 O   0  0  0  0  0  0  0  0  0  0  0  0
  -19.2640   44.5641  -21.6669 C   0  0  0  0  0  0  0  0  0  0  0  0
  -20.5906   44.8547  -21.4814 C   0  0  0  0  0  0  0  0  0  0  0  0
  -21.0533   45.1344  -20.2169 C   0  0  0  0  0  0  0  0  0  0  0  0
  -20.2473   45.1407  -19.1014 C   0  0  0  0  0  0  0  0  0  0  0  0
  -18.9182   44.8469  -19.3078 C   0  0  0  0  0  0  0  0  0  0  0  0
  -18.4364   44.5649  -20.5619 C   0  0  0  0  0  0  0  0  0  0  0  0
  -18.5953   39.4937  -22.3162 C   0  0  0  0  0  0  0  0  0  0  0  0
  -19.8645   38.9431  -23.4679 S   0  0  0  0  0  0  0  0  0  0  0  0
  -19.2220   37.3811  -24.1391 C   0  0  0  0  0  0  0  0  0  0  0  0
  1  2  1  0
  2  3  1  0
  3  4  2  0
  4  5  1  0
  5  6  2  0
  6  7  1  0
  7  8  1  0
  8  9  1  0
  9 10  2  0
 10 11  1  0
 11 12  2  0
 11 13  1  0
 10 14  1  0
 14 15  1  0
 15 16  2  0
 15 17  1  0
 17 18  1  0
 18 19  1  0
 19 20  2  0
 19 21  1  0
 21 22  1  0
 21 23  1  0
 23 24  2  0
 24 25  1  0
 25 26  2  0
 26 27  1  0
 27 28  2  0
 17 29  1  0
 29 30  1  0
 30 31  1  0
  6  2  1  0
 31  9  1  0
 29 14  1  0
 28 23  1  0
M  END
$$$$
