
     RDKit          3D

 26 26  0  0  0  0  0  0  0  0999 V2000
  -18.9774   21.4458  -32.7006 C   0  0  0  0  0  0  0  0  0  0  0  0
  -18.7404   20.0329  -33.0159 C   0  0  0  0  0  0  0  0  0  0  0  0
  -17.6907   19.6577  -33.5901 O   0  0  0  0  0  0  0  0  0  0  0  0
  -19.6901   19.0887  -32.6758 O   0  0  0  0  0  0  0  0  0  0  0  0
  -19.4889   17.7441  -32.9514 C   0  0  0  0  0  0  0  0  0  0  0  0
  -18.3970   17.1644  -32.1323 C   0  0  0  0  0  0  0  0  0  0  0  0
  -18.0884   15.9395  -32.2951 O   0  0  0  0  0  0  0  0  0  0  0  0
  -17.6828   17.8982  -31.1761 N   0  0  0  0  0  0  0  0  0  0  0  0
  -16.6322   17.4532  -30.3327 C   0  0  0  0  0  0  0  0  0  0  0  0
  -16.8960   16.4490  -29.2946 C   0  0  0  0  0  0  0  0  0  0  0  0
  -17.3447   15.0855  -29.6210 C   0  0  0  0  0  0  0  0  0  0  0  0
  -16.5601   14.2843  -30.4019 O   0  0  0  0  0  0  0  0  0  0  0  0
  -15.3243   13.7454  -30.3014 C   0  0  0  0  0  0  0  0  0  0  0  0
  -14.9163   12.9721  -31.4091 C   0  0  0  0  0  0  0  0  0  0  0  0
  -13.6835   12.3801  -31.4101 C   0  0  0  0  0  0  0  0  0  0  0  0
  -12.8473   12.5394  -30.3349 C   0  0  0  0  0  0  0  0  0  0  0  0
  -13.2320   13.2862  -29.2556 C   0  0  0  0  0  0  0  0  0  0  0  0
  -12.3271   13.4692  -28.0643 C   0  0  0  0  0  0  0  0  0  0  0  0
  -12.6361   12.4752  -27.1017 N   0  0  0  0  0  0  0  0  0  0  0  0
  -11.8573   12.6041  -25.8794 C   0  0  0  0  0  0  0  0  0  0  0  0
  -10.4118   12.7101  -26.2970 C   0  0  0  0  0  0  0  0  0  0  0  0
   -9.9694   11.6241  -27.2055 C   0  0  0  0  0  0  0  0  0  0  0  0
  -11.0113   10.7310  -27.7359 C   0  0  0  0  0  0  0  0  0  0  0  0
  -12.4235   11.1505  -27.5717 C   0  0  0  0  0  0  0  0  0  0  0  0
  -14.4678   13.8856  -29.2427 C   0  0  0  0  0  0  0  0  0  0  0  0
  -15.2868   15.3324  -29.9593 Cl  0  0  0  0  0  0  0  0  0  0  0  0
  1  2  1  0
  2  3  2  0
  2  4  1  0
  4  5  1  0
  5  6  1  0
  6  7  2  0
  6  8  1  0
  8  9  1  0
  9 10  1  0
 10 11  1  0
 11 12  1  0
 12 13  1  0
 13 14  2  0
 14 15  1  0
 15 16  2  0
 16 17  1  0
 17 18  1  0
 18 19  1  0
 19 20  1  0
 20 21  1  0
 21 22  1  0
 22 23  1  0
 23 24  1  0
 17 25  2  0
 25 13  1  0
 24 19  1  0
M  END
$$$$
