
     RDKit          3D

 14 15  0  0  0  0  0  0  0  0999 V2000
  -17.6214   18.3826  -33.4858 O   0  0  0  0  0  0  0  0  0  0  0  0
  -17.8527   17.3419  -32.7716 C   0  0  0  0  0  0  0  0  0  0  0  0
  -19.0329   16.5329  -32.8813 C   0  0  0  0  0  0  0  0  0  0  0  0
  -20.1290   16.7045  -33.7527 C   0  0  0  0  0  0  0  0  0  0  0  0
  -21.2059   15.8579  -33.7623 C   0  0  0  0  0  0  0  0  0  0  0  0
  -21.2142   14.7994  -32.8851 C   0  0  0  0  0  0  0  0  0  0  0  0
  -20.1643   14.5980  -32.0195 C   0  0  0  0  0  0  0  0  0  0  0  0
  -19.0827   15.4638  -32.0229 C   0  0  0  0  0  0  0  0  0  0  0  0
  -17.6055   15.5215  -31.0894 S   0  0  0  0  0  6  0  0  0  0  0  0
  -17.8344   15.6578  -29.6379 O   0  0  0  0  0  0  0  0  0  0  0  0
  -16.7378   14.3572  -31.4532 O   0  0  0  0  0  0  0  0  0  0  0  0
  -16.9266   16.9275  -31.8106 N   0  0  0  0  0  0  0  0  0  0  0  0
  -15.6405   17.5546  -31.4787 C   0  0  0  0  0  0  0  0  0  0  0  0
  -15.9333   18.7550  -30.2028 Cl  0  0  0  0  0  0  0  0  0  0  0  0
  1  2  2  0
  2  3  1  0
  3  4  2  0
  4  5  1  0
  5  6  2  0
  6  7  1  0
  7  8  2  0
  8  9  1  0
  9 10  2  0
  9 11  2  0
  9 12  1  0
 12 13  1  0
 13 14  1  0
 12  2  1  0
  8  3  1  0
M  END
$$$$
