
     RDKit          3D

 29 27  0  0  0  0  0  0  0  0999 V2000
  -24.0246   15.4830  -32.8608 C   0  0  0  0  0  0  0  0  0  0  0  0
  -23.9280   16.8448  -32.2210 C   0  0  0  0  0  0  0  0  0  0  0  0
  -22.6049   17.4415  -32.3315 N   0  0  0  0  0  0  0  0  0  0  0  0
  -22.3263   17.7874  -33.7173 C   0  0  0  0  0  0  0  0  0  0  0  0
  -23.2190   18.9093  -34.1994 C   0  0  0  0  0  0  0  0  0  0  0  0
  -21.6857   16.4140  -31.8632 C   0  0  0  0  0  0  0  0  0  0  0  0
  -20.2767   16.8712  -31.8674 C   0  0  0  0  0  0  0  0  0  0  0  0
  -19.3948   16.4669  -32.8637 C   0  0  0  0  0  0  0  0  0  0  0  0
  -18.0795   16.8851  -32.8721 C   0  0  0  0  0  0  0  0  0  0  0  0
  -17.2121   16.4620  -33.9216 N   0  0  0  0  0  0  0  0  0  0  0  0
  -15.7978   16.4765  -33.7716 C   0  0  0  0  0  0  0  0  0  0  0  0
  -15.0496   17.2991  -34.6039 C   0  0  0  0  0  0  0  0  0  0  0  0
  -13.6761   17.2513  -34.4106 C   0  0  0  0  0  0  0  0  0  0  0  0
  -13.1277   16.4557  -33.4761 N   0  0  0  0  0  0  0  0  0  0  0  0
  -13.8513   15.6482  -32.6588 C   0  0  0  0  0  0  0  0  0  0  0  0
  -13.2672   14.8458  -31.7202 C   0  0  0  0  0  0  0  0  0  0  0  0
  -14.0743   14.0474  -30.9296 C   0  0  0  0  0  0  0  0  0  0  0  0
  -13.2853   13.0426  -29.7478 Cl  0  0  0  0  0  0  0  0  0  0  0  0
  -15.4360   14.0288  -31.0499 C   0  0  0  0  0  0  0  0  0  0  0  0
  -16.0108   14.8554  -32.0139 C   0  0  0  0  0  0  0  0  0  0  0  0
  -15.2391   15.6636  -32.8187 C   0  0  0  0  0  0  0  0  0  0  0  0
  -17.5989   17.7158  -31.8946 C   0  0  0  0  0  0  0  0  0  0  0  0
  -18.4594   18.1304  -30.8944 C   0  0  0  0  0  0  0  0  0  0  0  0
  -19.7740   17.7075  -30.8925 C   0  0  0  0  0  0  0  0  0  0  0  0
  -20.5968   18.1495  -29.8691 O   0  0  0  0  0  0  0  0  0  0  0  0
  -18.3466   16.4318  -32.5796 Cl  0  0  0  0  0  0  0  0  0  0  0  0
  -18.3421   16.4307  -32.5796 Cl  0  0  0  0  0  0  0  0  0  0  0  0
  -19.1026   16.2266  -32.5373 O   0  0  0  0  0  0  0  0  0  0  0  0
  -19.1029   16.2208  -32.5367 O   0  0  0  0  0  0  0  0  0  0  0  0
  1  2  1  0
  2  3  1  0
  3  4  1  0
  4  5  1  0
  3  6  1  0
  6  7  1  0
  7  8  2  0
  8  9  1  0
  9 10  1  0
 10 11  1  0
 11 12  2  0
 12 13  1  0
 13 14  2  0
 14 15  1  0
 15 16  2  0
 16 17  1  0
 17 18  1  0
 17 19  2  0
 19 20  1  0
 20 21  2  0
  9 22  2  0
 22 23  1  0
 23 24  2  0
 24 25  1  0
 24  7  1  0
 21 11  1  0
 21 15  1  0
M  END
$$$$
