
     RDKit          3D

 27 30  0  0  0  0  0  0  0  0999 V2000
  -16.6889   16.9401  -29.4119 O   0  0  0  0  0  0  0  0  0  0  0  0
  -15.9322   16.6547  -30.4061 C   0  0  0  0  0  0  0  0  0  0  0  0
  -15.8478   17.6585  -31.4048 N   0  0  0  0  0  0  0  0  0  0  0  0
  -16.6483   18.8464  -31.3384 C   0  0  0  0  0  0  0  0  0  0  0  0
  -16.2767   19.8763  -30.4806 C   0  0  0  0  0  0  0  0  0  0  0  0
  -17.0012   21.0425  -30.3744 C   0  0  0  0  0  0  0  0  0  0  0  0
  -18.1329   21.2142  -31.1331 C   0  0  0  0  0  0  0  0  0  0  0  0
  -18.5031   20.1718  -31.9967 C   0  0  0  0  0  0  0  0  0  0  0  0
  -17.7731   19.0049  -32.0990 C   0  0  0  0  0  0  0  0  0  0  0  0
  -18.1793   17.9213  -33.0027 C   0  0  0  0  0  0  0  0  0  0  0  0
  -19.4504   17.4284  -32.9047 N   0  0  0  0  0  0  0  0  0  0  0  0
  -19.9128   16.4393  -33.6864 C   0  0  0  0  0  0  0  0  0  0  0  0
  -21.1939   15.9440  -33.5878 C   0  0  0  0  0  0  0  0  0  0  0  0
  -21.6681   14.9229  -34.3974 C   0  0  0  0  0  0  0  0  0  0  0  0
  -20.8630   14.3483  -35.3541 C   0  0  0  0  0  0  0  0  0  0  0  0
  -19.5811   14.8403  -35.4565 C   0  0  0  0  0  0  0  0  0  0  0  0
  -19.1105   15.8617  -34.6450 C   0  0  0  0  0  0  0  0  0  0  0  0
  -17.8650   16.3348  -34.7509 N   0  0  0  0  0  0  0  0  0  0  0  0
  -17.3891   17.3469  -33.9524 C   0  0  0  0  0  0  0  0  0  0  0  0
  -16.2070   17.7064  -34.1432 O   0  0  0  0  0  0  0  0  0  0  0  0
  -15.2442   15.3753  -30.4399 C   0  0  0  0  0  0  0  0  0  0  0  0
  -14.7539   14.8185  -29.2873 C   0  0  0  0  0  0  0  0  0  0  0  0
  -14.1023   13.5952  -29.3438 C   0  0  0  0  0  0  0  0  0  0  0  0
  -13.9202   12.9018  -30.5154 C   0  0  0  0  0  0  0  0  0  0  0  0
  -13.2769   11.7125  -30.5109 F   0  0  0  0  0  0  0  0  0  0  0  0
  -14.4227   13.4810  -31.6686 C   0  0  0  0  0  0  0  0  0  0  0  0
  -15.0766   14.6998  -31.6405 C   0  0  0  0  0  0  0  0  0  0  0  0
  1  2  2  0
  2  3  1  0
  3  4  1  0
  4  5  2  0
  5  6  1  0
  6  7  2  0
  7  8  1  0
  8  9  2  0
  9 10  1  0
 10 11  2  0
 11 12  1  0
 12 13  2  0
 13 14  1  0
 14 15  2  0
 15 16  1  0
 16 17  2  0
 17 18  1  0
 18 19  1  0
 19 20  2  0
  2 21  1  0
 21 22  2  0
 22 23  1  0
 23 24  2  0
 24 25  1  0
 24 26  1  0
 26 27  2  0
  9  4  1  0
 19 10  1  0
 27 21  1  0
 17 12  1  0
M  END
$$$$
