
     RDKit          3D

 32 33  0  0  0  0  0  0  0  0999 V2000
  -24.8391   19.1159  -25.8567 C   0  0  0  0  0  0  0  0  0  0  0  0
  -25.4714   18.3688  -26.9883 C   0  0  0  0  0  0  0  0  0  0  0  0
  -24.6599   17.1265  -27.3574 C   0  0  0  0  0  0  0  0  0  0  0  0
  -25.6857   19.1899  -28.1904 C   0  0  0  0  0  0  0  0  0  0  0  0
  -24.7297   19.3003  -29.1885 C   0  0  0  0  0  0  0  0  0  0  0  0
  -24.9329   20.0705  -30.3145 C   0  0  0  0  0  0  0  0  0  0  0  0
  -26.1419   20.7445  -30.4241 C   0  0  0  0  0  0  0  0  0  0  0  0
  -27.1159   20.6425  -29.4249 C   0  0  0  0  0  0  0  0  0  0  0  0
  -28.3968   21.3617  -29.5468 C   0  0  0  0  0  0  0  0  0  0  0  0
  -29.2880   20.5179  -30.4251 C   0  0  0  0  0  0  0  0  0  0  0  0
  -28.2333   22.7084  -30.2304 C   0  0  0  0  0  0  0  0  0  0  0  0
  -26.8755   19.8710  -28.3284 C   0  0  0  0  0  0  0  0  0  0  0  0
  -27.8430   19.7557  -27.3152 N   0  0  0  0  0  0  0  0  0  0  0  0
  -28.8136   18.7174  -27.2028 C   0  0  0  0  0  0  0  0  0  0  0  0
  -28.7903   17.8534  -28.0833 O   0  0  0  0  0  0  0  0  0  0  0  0
  -29.7263   18.7197  -26.1234 N   0  0  0  0  0  0  0  0  0  0  0  0
  -30.7416   17.7893  -25.8445 C   0  0  0  0  0  0  0  0  0  0  0  0
  -31.8966   17.5736  -26.7336 C   0  0  0  0  0  0  0  0  0  0  0  0
  -32.7634   16.5400  -26.0154 C   0  0  0  0  0  0  0  0  0  0  0  0
  -32.5448   15.2149  -26.2601 C   0  0  0  0  0  0  0  0  0  0  0  0
  -33.3068   14.2232  -25.6322 C   0  0  0  0  0  0  0  0  0  0  0  0
  -34.2990   14.5921  -24.7478 C   0  0  0  0  0  0  0  0  0  0  0  0
  -35.0916   13.6013  -24.0931 N   0  0  0  0  0  0  0  0  0  0  0  0
  -36.1267   14.0187  -23.1687 C   0  0  0  0  0  0  0  0  0  0  0  0
  -34.8685   12.1954  -24.3462 C   0  0  0  0  0  0  0  0  0  0  0  0
  -34.5042   15.9338  -24.5143 C   0  0  0  0  0  0  0  0  0  0  0  0
  -33.7453   16.9207  -25.1397 C   0  0  0  0  0  0  0  0  0  0  0  0
  -32.6969   18.8494  -26.9442 C   0  0  0  0  0  0  0  0  0  0  0  0
  -32.2436   19.3673  -28.3013 C   0  0  0  0  0  0  0  0  0  0  0  0
  -31.8456   18.1309  -29.0858 C   0  0  0  0  0  0  0  0  0  0  0  0
  -31.7012   17.0029  -28.0903 C   0  0  0  0  0  0  0  0  0  0  0  0
  -30.6330   17.7294  -26.8836 Cl  0  0  0  0  0  0  0  0  0  0  0  0
  1  2  1  0
  2  3  1  0
  2  4  1  0
  4  5  2  0
  5  6  1  0
  6  7  2  0
  7  8  1  0
  8  9  1  0
  9 10  1  0
  9 11  1  0
  8 12  2  0
 12 13  1  0
 13 14  1  0
 14 15  2  0
 14 16  1  0
 16 17  1  0
 17 18  1  0
 18 19  1  0
 19 20  2  0
 20 21  1  0
 21 22  2  0
 22 23  1  0
 23 24  1  0
 23 25  1  0
 22 26  1  0
 26 27  2  0
 18 28  1  0
 28 29  1  0
 29 30  1  0
 30 31  1  0
 12  4  1  0
 31 18  1  0
 27 19  1  0
M  END
$$$$
