
     RDKit          3D

 27 28  0  0  0  0  0  0  0  0999 V2000
  -18.3825   38.5644  -18.7593 C   0  0  0  0  0  0  0  0  0  0  0  0
  -18.7951   39.2387  -19.9251 O   0  0  0  0  0  0  0  0  0  0  0  0
  -18.0357   40.2889  -20.4190 C   0  0  0  0  0  0  0  0  0  0  0  0
  -17.0665   40.6624  -19.7295 O   0  0  0  0  0  0  0  0  0  0  0  0
  -18.4154   40.8875  -21.7061 C   0  0  0  0  0  0  0  0  0  0  0  0
  -19.2088   42.0360  -21.7284 C   0  0  0  0  0  0  0  0  0  0  0  0
  -19.5973   42.6216  -22.9086 C   0  0  0  0  0  0  0  0  0  0  0  0
  -19.2256   42.1080  -24.1277 C   0  0  0  0  0  0  0  0  0  0  0  0
  -18.4431   40.9759  -24.1157 C   0  0  0  0  0  0  0  0  0  0  0  0
  -18.0373   40.3653  -22.9223 C   0  0  0  0  0  0  0  0  0  0  0  0
  -17.0332   38.9420  -22.9660 S   0  0  0  0  0  6  0  0  0  0  0  0
  -15.9809   39.0753  -21.8738 O   0  0  0  0  0  0  0  0  0  0  0  0
  -16.2551   38.8393  -24.2541 O   0  0  0  0  0  0  0  0  0  0  0  0
  -17.9322   37.5102  -22.6338 N   0  0  0  0  0  0  0  0  0  0  0  0
  -19.2744   37.4007  -23.0757 C   0  0  0  0  0  0  0  0  0  0  0  0
  -19.7542   38.3750  -23.6991 O   0  0  0  0  0  0  0  0  0  0  0  0
  -20.0748   36.2538  -22.8424 N   0  0  0  0  0  0  0  0  0  0  0  0
  -21.5000   36.2230  -23.0934 C   0  0  0  0  0  0  0  0  0  0  0  0
  -19.4635   35.0762  -22.3403 C   0  0  0  0  0  0  0  0  0  0  0  0
  -18.1445   35.0763  -22.1363 N   0  0  0  0  0  0  0  0  0  0  0  0
  -17.4664   34.0071  -21.6613 C   0  0  0  0  0  0  0  0  0  0  0  0
  -15.9925   34.0795  -21.4585 C   0  0  0  0  0  0  0  0  0  0  0  0
  -18.1782   32.8932  -21.3859 N   0  0  0  0  0  0  0  0  0  0  0  0
  -19.5071   32.8497  -21.5763 C   0  0  0  0  0  0  0  0  0  0  0  0
  -20.2195   31.6999  -21.2885 O   0  0  0  0  0  0  0  0  0  0  0  0
  -19.7791   30.4593  -21.7696 C   0  0  0  0  0  0  0  0  0  0  0  0
  -20.1425   33.9504  -22.0556 N   0  0  0  0  0  0  0  0  0  0  0  0
  1  2  1  0
  2  3  1  0
  3  4  2  0
  3  5  1  0
  5  6  2  0
  6  7  1  0
  7  8  2  0
  8  9  1  0
  9 10  2  0
 10 11  1  0
 11 12  2  0
 11 13  2  0
 11 14  1  0
 14 15  1  0
 15 16  2  0
 15 17  1  0
 17 18  1  0
 17 19  1  0
 19 20  2  0
 20 21  1  0
 21 22  1  0
 21 23  2  0
 23 24  1  0
 24 25  1  0
 25 26  1  0
 24 27  2  0
 10  5  1  0
 27 19  1  0
M  END
$$$$
