
     RDKit          3D

 39 43  0  0  0  0  0  0  0  0999 V2000
  -19.2135   41.8216  -20.2396 C   0  0  0  0  0  0  0  0  0  0  0  0
  -18.8050   40.9324  -21.1794 O   0  0  0  0  0  0  0  0  0  0  0  0
  -17.7142   41.2525  -21.9487 C   0  0  2  0  0  0  0  0  0  0  0  0
  -17.0911   42.4932  -21.4406 C   0  0  0  0  0  0  0  0  0  0  0  0
  -17.2389   42.8823  -20.2719 O   0  0  0  0  0  0  0  0  0  0  0  0
  -16.2705   43.3107  -22.2922 N   0  0  0  0  0  0  0  0  0  0  0  0
  -15.9326   44.6335  -21.8925 C   0  0  1  0  0  0  0  0  0  0  0  0
  -17.1777   45.5034  -21.7169 C   0  0  0  0  0  0  0  0  0  0  0  0
  -15.1224   44.6219  -20.6790 C   0  0  0  0  0  0  0  0  0  0  0  0
  -15.6644   44.9504  -19.4645 C   0  0  0  0  0  0  0  0  0  0  0  0
  -14.9008   44.9381  -18.3008 C   0  0  0  0  0  0  0  0  0  0  0  0
  -13.5803   44.5896  -18.3694 C   0  0  0  0  0  0  0  0  0  0  0  0
  -12.7353   44.5609  -17.2159 N   0  0  0  0  0  0  0  0  0  0  0  0
  -13.1020   44.7160  -15.9459 C   0  0  0  0  0  0  0  0  0  0  0  0
  -11.9827   44.6179  -15.1263 C   0  0  0  0  0  0  0  0  0  0  0  0
  -11.8928   44.7104  -13.7864 F   0  0  0  0  0  0  0  0  0  0  0  0
  -10.9285   44.3936  -15.9991 C   0  0  0  0  0  0  0  0  0  0  0  0
  -11.4408   44.3686  -17.2514 N   0  0  0  0  0  0  0  0  0  0  0  0
  -13.0420   44.2639  -19.5609 N   0  0  0  0  0  0  0  0  0  0  0  0
  -13.7687   44.2737  -20.6835 C   0  0  0  0  0  0  0  0  0  0  0  0
  -18.1664   41.3397  -23.3876 C   0  0  0  0  0  0  0  0  0  0  0  0
  -18.9348   40.0741  -23.6897 C   0  0  0  0  0  0  0  0  0  0  0  0
  -18.0336   38.9124  -23.6166 C   0  0  2  0  0  0  0  0  0  0  0  0
  -18.8476   37.6496  -23.7051 C   0  0  0  0  0  0  0  0  0  0  0  0
  -19.4850   37.4139  -24.8572 N   0  0  0  0  0  0  0  0  0  0  0  0
  -20.2744   36.3314  -25.0447 C   0  0  0  0  0  0  0  0  0  0  0  0
  -20.9788   36.0596  -26.3202 C   0  0  0  0  0  0  0  0  0  0  0  0
  -20.3910   35.4609  -23.9536 C   0  0  0  0  0  0  0  0  0  0  0  0
  -19.7424   35.6973  -22.7732 C   0  0  0  0  0  0  0  0  0  0  0  0
  -19.8387   34.8516  -21.6467 N   0  0  0  0  0  0  0  0  0  0  0  0
  -19.8472   33.4327  -21.7138 C   0  0  0  0  0  0  0  0  0  0  0  0
  -19.2595   32.5155  -20.8922 C   0  0  0  0  0  0  0  0  0  0  0  0
  -19.5408   31.2198  -21.3771 C   0  0  0  0  0  0  0  0  0  0  0  0
  -19.0861   29.9319  -20.7988 C   0  0  0  0  0  0  0  0  0  0  0  0
  -20.2922   31.4379  -22.4730 N   0  0  0  0  0  0  0  0  0  0  0  0
  -20.4773   32.7419  -22.6776 N   0  0  0  0  0  0  0  0  0  0  0  0
  -18.9728   36.8040  -22.6780 N   0  0  0  0  0  0  0  0  0  0  0  0
  -17.0953   38.8445  -22.4489 C   0  0  0  0  0  0  0  0  0  0  0  0
  -16.7336   40.0941  -21.7764 C   0  0  0  0  0  0  0  0  0  0  0  0
  1  2  1  0
  3  2  1  1
  3  4  1  0
  4  5  2  0
  4  6  1  0
  6  7  1  0
  7  8  1  1
  7  9  1  0
  9 10  2  0
 10 11  1  0
 11 12  2  0
 12 13  1  0
 13 14  1  0
 14 15  2  0
 15 16  1  0
 15 17  1  0
 17 18  2  0
 12 19  1  0
 19 20  2  0
  3 21  1  0
 21 22  1  0
 22 23  1  0
 23 24  1  1
 24 25  2  0
 25 26  1  0
 26 27  1  0
 26 28  2  0
 28 29  1  0
 29 30  1  0
 30 31  1  0
 31 32  1  0
 32 33  2  0
 33 34  1  0
 33 35  1  0
 35 36  1  0
 29 37  2  0
 23 38  1  0
 38 39  1  0
 39  3  1  0
 20  9  1  0
 37 24  1  0
 18 13  1  0
 36 31  2  0
M  END
$$$$
