
     RDKit          3D

 32 37  0  0  0  0  0  0  0  0999 V2000
  -20.2948   24.7781  -41.4389 C   0  0  0  0  0  0  0  0  0  0  0  0
  -19.2359   24.7841  -42.3938 N   0  0  0  0  0  0  0  0  0  0  0  0
  -19.6669   24.7257  -43.7683 C   0  0  0  0  0  0  0  0  0  0  0  0
  -19.6869   23.3343  -44.3047 C   0  0  0  0  0  0  0  0  0  0  0  0
  -18.4747   22.6128  -44.1209 N   0  0  0  0  0  0  0  0  0  0  0  0
  -17.3839   23.0359  -44.9343 C   0  0  0  0  0  0  0  0  0  0  0  0
  -16.3159   22.0246  -45.0886 C   0  0  0  0  0  0  0  0  0  0  0  0
  -15.1901   22.1841  -45.8655 C   0  0  0  0  0  0  0  0  0  0  0  0
  -14.2317   21.1745  -45.9499 C   0  0  0  0  0  0  0  0  0  0  0  0
  -14.3579   19.9820  -45.2711 C   0  0  0  0  0  0  0  0  0  0  0  0
  -13.3602   18.9144  -45.3515 C   0  0  0  0  0  0  0  0  0  0  0  0
  -12.9762   18.3914  -46.5721 C   0  0  0  0  0  0  0  0  0  0  0  0
  -12.0615   17.4104  -46.6589 N   0  0  0  0  0  0  0  0  0  0  0  0
  -11.4756   16.8898  -45.5659 C   0  0  0  0  0  0  0  0  0  0  0  0
  -10.5538   15.9249  -45.3601 N   0  0  0  0  0  0  0  0  0  0  0  0
  -10.3210   15.7996  -44.0389 C   0  0  0  0  0  0  0  0  0  0  0  0
  -11.1016   16.6982  -43.3408 C   0  0  0  0  0  0  0  0  0  0  0  0
  -11.1844   16.9311  -41.9216 C   0  0  0  0  0  0  0  0  0  0  0  0
  -11.4810   15.8714  -41.0803 C   0  0  0  0  0  0  0  0  0  0  0  0
  -11.5653   16.0458  -39.7148 C   0  0  0  0  0  0  0  0  0  0  0  0
  -11.3551   17.2920  -39.1416 C   0  0  0  0  0  0  0  0  0  0  0  0
  -11.3780   17.7232  -37.8645 N   0  0  0  0  0  0  0  0  0  0  0  0
  -11.1025   19.0239  -37.8998 C   0  0  0  0  0  0  0  0  0  0  0  0
  -10.8994   19.4455  -39.1967 C   0  0  0  0  0  0  0  0  0  0  0  0
  -11.0619   18.3288  -40.0011 C   0  0  0  0  0  0  0  0  0  0  0  0
  -10.9730   18.1753  -41.3676 C   0  0  0  0  0  0  0  0  0  0  0  0
  -11.8204   17.3759  -44.2984 C   0  0  0  0  0  0  0  0  0  0  0  0
  -12.7642   18.3862  -44.2259 C   0  0  0  0  0  0  0  0  0  0  0  0
  -15.4845   19.8191  -44.4921 C   0  0  0  0  0  0  0  0  0  0  0  0
  -16.4374   20.8102  -44.4018 C   0  0  0  0  0  0  0  0  0  0  0  0
  -18.1644   22.5721  -42.7142 C   0  0  0  0  0  0  0  0  0  0  0  0
  -18.1334   23.9235  -42.0982 C   0  0  0  0  0  0  0  0  0  0  0  0
  1  2  1  0
  2  3  1  0
  3  4  1  0
  4  5  1  0
  5  6  1  0
  6  7  1  0
  7  8  2  0
  8  9  1  0
  9 10  2  0
 10 11  1  0
 11 12  2  0
 12 13  1  0
 13 14  2  0
 14 15  1  0
 15 16  1  0
 16 17  2  0
 17 18  1  0
 18 19  2  0
 19 20  1  0
 20 21  2  0
 21 22  1  0
 22 23  1  0
 23 24  2  0
 24 25  1  0
 25 26  2  0
 17 27  1  0
 27 28  2  0
 10 29  1  0
 29 30  2  0
  5 31  1  0
 31 32  1  0
 32  2  1  0
 30  7  1  0
 28 11  1  0
 27 14  1  0
 26 18  1  0
 25 21  1  0
M  END
$$$$
