
     RDKit          3D

 20 21  0  0  0  0  0  0  0  0999 V2000
  -18.4620   15.0220  -33.5745 O   0  0  0  0  0  0  0  0  0  0  0  0
  -19.1053   15.9120  -32.9914 C   0  0  0  0  0  0  0  0  0  0  0  0
  -18.6334   16.3200  -31.7096 N   0  0  0  0  0  0  0  0  0  0  0  0
  -17.2686   16.1494  -31.3453 C   0  0  0  0  0  0  0  0  0  0  0  0
  -16.6788   14.9003  -31.3728 C   0  0  0  0  0  0  0  0  0  0  0  0
  -15.3589   14.7625  -31.0162 C   0  0  0  0  0  0  0  0  0  0  0  0
  -14.6030   13.1855  -31.0476 Cl  0  0  0  0  0  0  0  0  0  0  0  0
  -14.6431   15.8605  -30.6383 C   0  0  0  0  0  0  0  0  0  0  0  0
  -15.2310   17.1198  -30.6087 C   0  0  0  0  0  0  0  0  0  0  0  0
  -14.2596   18.4942  -30.1141 Cl  0  0  0  0  0  0  0  0  0  0  0  0
  -16.5569   17.2760  -30.9641 C   0  0  0  0  0  0  0  0  0  0  0  0
  -20.3070   16.5854  -33.4961 C   0  0  1  0  0  0  0  0  0  0  0  0
  -20.0717   16.9934  -34.9183 C   0  0  0  0  0  0  0  0  0  0  0  0
  -19.8736   15.7064  -35.7229 C   0  0  0  0  0  0  0  0  0  0  0  0
  -21.2673   15.0766  -35.8052 C   0  0  0  0  0  0  0  0  0  0  0  0
  -21.6496   14.6783  -34.4223 C   0  0  0  0  0  0  0  0  0  0  0  0
  -21.5601   15.7725  -33.4092 C   0  0  1  0  0  0  0  0  0  0  0  0
  -21.7873   15.1975  -32.0688 C   0  0  0  0  0  0  0  0  0  0  0  0
  -21.9735   13.9704  -31.9217 O   0  0  0  0  0  0  0  0  0  0  0  0
  -21.8047   15.9774  -30.9277 O   0  0  0  0  0  0  0  0  0  0  0  0
  1  2  2  0
  2  3  1  0
  3  4  1  0
  4  5  2  0
  5  6  1  0
  6  7  1  0
  6  8  2  0
  8  9  1  0
  9 10  1  0
  9 11  2  0
 12  2  1  6
 12 13  1  0
 13 14  1  0
 14 15  1  0
 15 16  1  0
 16 17  1  0
 17 18  1  1
 18 19  2  0
 18 20  1  0
 11  4  1  0
 17 12  1  0
M  END
$$$$
