
     RDKit          3D

 21 24  0  0  0  0  0  0  0  0999 V2000
  -51.7228   23.3435  -27.4000 O   0  0  0  0  0  0  0  0  0  0  0  0
  -51.7952   23.6668  -28.6012 C   0  0  0  0  0  0  0  0  0  0  0  0
  -51.8302   25.0451  -28.8881 C   0  0  0  0  0  0  0  0  0  0  0  0
  -51.9093   25.5013  -30.1748 C   0  0  0  0  0  0  0  0  0  0  0  0
  -51.9474   26.9106  -30.5102 C   0  0  0  0  0  0  0  0  0  0  0  0
  -52.0507   27.8869  -29.5104 C   0  0  0  0  0  0  0  0  0  0  0  0
  -52.0897   29.2325  -29.7889 C   0  0  0  0  0  0  0  0  0  0  0  0
  -52.0276   29.6822  -31.0860 C   0  0  0  0  0  0  0  0  0  0  0  0
  -51.9258   28.7567  -32.0954 C   0  0  0  0  0  0  0  0  0  0  0  0
  -51.8876   27.3936  -31.7926 C   0  0  0  0  0  0  0  0  0  0  0  0
  -51.9526   24.6262  -31.1471 O   0  0  0  0  0  0  0  0  0  0  0  0
  -51.9253   23.3320  -30.9743 C   0  0  0  0  0  0  0  0  0  0  0  0
  -51.9749   22.4654  -32.0568 C   0  0  0  0  0  0  0  0  0  0  0  0
  -51.9432   21.1188  -31.8184 C   0  0  0  0  0  0  0  0  0  0  0  0
  -51.8647   20.5788  -30.5630 C   0  0  0  0  0  0  0  0  0  0  0  0
  -51.8355   19.1989  -30.3789 C   0  0  0  0  0  0  0  0  0  0  0  0
  -51.7572   18.6771  -29.1218 C   0  0  0  0  0  0  0  0  0  0  0  0
  -51.7089   19.5290  -28.0663 C   0  0  0  0  0  0  0  0  0  0  0  0
  -51.7351   20.9264  -28.1942 C   0  0  0  0  0  0  0  0  0  0  0  0
  -51.8136   21.4454  -29.4562 C   0  0  0  0  0  0  0  0  0  0  0  0
  -51.8444   22.8172  -29.6713 C   0  0  0  0  0  0  0  0  0  0  0  0
  1  2  2  0
  2  3  1  0
  3  4  2  0
  4  5  1  0
  5  6  2  0
  6  7  1  0
  7  8  2  0
  8  9  1  0
  9 10  2  0
  4 11  1  0
 11 12  1  0
 12 13  2  0
 13 14  1  0
 14 15  2  0
 15 16  1  0
 16 17  2  0
 17 18  1  0
 18 19  2  0
 19 20  1  0
 20 21  2  0
 21  2  1  0
 10  5  1  0
 21 12  1  0
 20 15  1  0
M  END
$$$$
