
     RDKit          3D

 31 32  0  0  0  0  0  0  0  0999 V2000
  -18.8589   40.5465  -25.3707 C   0  0  0  0  0  0  0  0  0  0  0  0
  -18.4001   41.5957  -24.4402 C   0  0  0  0  0  0  0  0  0  0  0  0
  -18.0967   42.8393  -24.8242 O   0  0  0  0  0  0  0  0  0  0  0  0
  -17.7301   43.5514  -23.8304 N   0  0  0  0  0  0  0  0  0  0  0  0
  -17.7713   42.8034  -22.7040 C   0  0  0  0  0  0  0  0  0  0  0  0
  -17.3866   43.3428  -21.4179 C   0  0  0  0  0  0  0  0  0  0  0  0
  -18.2438   43.4263  -20.3418 C   0  0  0  0  0  0  0  0  0  0  0  0
  -17.8123   43.9648  -19.1531 C   0  0  0  0  0  0  0  0  0  0  0  0
  -16.5370   44.4272  -19.0084 C   0  0  0  0  0  0  0  0  0  0  0  0
  -15.6670   44.3542  -20.0691 C   0  0  0  0  0  0  0  0  0  0  0  0
  -16.0900   43.8169  -21.2606 C   0  0  0  0  0  0  0  0  0  0  0  0
  -14.9296   43.7414  -22.5938 Cl  0  0  0  0  0  0  0  0  0  0  0  0
  -18.2015   41.5372  -23.0887 C   0  0  0  0  0  0  0  0  0  0  0  0
  -18.3322   40.4178  -22.2106 C   0  0  0  0  0  0  0  0  0  0  0  0
  -18.3592   40.6292  -20.9475 O   0  0  0  0  0  0  0  0  0  0  0  0
  -18.4360   39.0476  -22.5656 N   0  0  0  0  0  0  0  0  0  0  0  0
  -18.5761   38.0631  -21.5314 C   0  0  2  0  0  0  0  0  0  0  0  0
  -17.2979   37.3248  -21.1975 C   0  0  0  0  0  0  0  0  0  0  0  0
  -16.2058   37.8220  -20.7885 O   0  0  0  0  0  0  0  0  0  0  0  0
  -17.8378   36.0721  -21.5117 N   0  0  0  0  0  0  0  0  0  0  0  0
  -18.1094   34.6819  -21.7677 C   0  0  1  0  0  0  0  0  0  0  0  0
  -19.3558   34.3105  -21.0784 C   0  0  0  0  0  0  0  0  0  0  0  0
  -19.3760   34.0909  -19.8284 O   0  0  0  0  0  0  0  0  0  0  0  0
  -20.5510   34.1856  -21.7668 O   0  0  0  0  0  1  0  0  0  0  0  0
  -18.3217   34.5826  -23.2903 C   0  0  0  0  0  0  0  0  0  0  0  0
  -19.1735   33.4215  -23.6671 C   0  0  0  0  0  0  0  0  0  0  0  0
  -17.0056   34.5563  -24.0127 C   0  0  0  0  0  0  0  0  0  0  0  0
  -19.2075   36.1835  -23.5568 S   0  0  0  0  0  0  0  0  0  0  0  0
  -19.1256   36.7475  -21.8075 C   0  0  2  0  0  0  0  0  0  0  0  0
  -17.8875   38.8008  -21.8975 O   0  0  0  0  0  0  0  0  0  0  0  0
  -18.0917   38.9031  -22.2268 Na  0  0  0  0  0 15  0  0  0  0  0  0
  1  2  1  0
  2  3  1  0
  3  4  1  0
  4  5  2  0
  5  6  1  0
  6  7  2  0
  7  8  1  0
  8  9  2  0
  9 10  1  0
 10 11  2  0
 11 12  1  0
  5 13  1  0
 13 14  1  0
 14 15  2  0
 14 16  1  0
 17 16  1  6
 17 18  1  0
 18 19  2  0
 18 20  1  0
 20 21  1  0
 21 22  1  1
 22 23  2  0
 22 24  1  0
 21 25  1  0
 25 26  1  0
 25 27  1  0
 25 28  1  0
 29 28  1  6
 13  2  2  0
 29 17  1  0
 11  6  1  0
 29 20  1  0
M  CHG  2  24  -1  31   1
M  END
$$$$
