
     RDKit          3D

  5  4  0  0  0  0  0  0  0  0999 V2000
  -19.2795   34.8501  -22.5612 N   0  0  0  0  0  0  0  0  0  0  0  0
  -19.9195   33.4410  -21.8212 S   0  0  0  0  0  6  0  0  0  0  0  0
  -21.2704   33.8858  -20.8414 N   0  0  0  0  0  0  0  0  0  0  0  0
  -18.8970   32.7019  -21.0062 O   0  0  0  0  0  0  0  0  0  0  0  0
  -20.4374   32.5182  -22.9020 O   0  0  0  0  0  0  0  0  0  0  0  0
  1  2  1  0
  2  3  1  0
  2  4  2  0
  2  5  2  0
M  END
$$$$
