
     RDKit          3D

 46 51  0  0  0  0  0  0  0  0999 V2000
  -28.3748   22.4465  -38.6927 C   0  0  0  0  0  0  0  0  0  0  0  0
  -26.8966   22.6685  -38.6521 C   0  0  0  0  0  0  0  0  0  0  0  0
  -26.4736   23.9897  -38.7825 O   0  0  0  0  0  0  0  0  0  0  0  0
  -25.4144   24.6015  -38.1764 C   0  0  0  0  0  0  0  0  0  0  0  0
  -25.6438   25.4866  -37.1566 C   0  0  0  0  0  0  0  0  0  0  0  0
  -24.6227   26.1214  -36.5217 C   0  0  0  0  0  0  0  0  0  0  0  0
  -24.8009   27.0786  -35.4510 C   0  0  0  0  0  0  0  0  0  0  0  0
  -24.3108   26.7248  -34.3201 O   0  0  0  0  0  0  0  0  0  0  0  0
  -25.4528   28.3211  -35.5760 N   0  0  0  0  0  0  0  0  0  0  0  0
  -25.5309   29.2630  -34.4985 C   0  0  0  0  0  0  0  0  0  0  0  0
  -26.6409   30.2523  -34.7919 C   0  0  0  0  0  0  0  0  0  0  0  0
  -27.8545   29.6308  -35.3981 C   0  0  0  0  0  0  0  0  0  0  0  0
  -28.8588   30.6448  -35.6217 N   0  0  0  0  0  0  0  0  0  0  0  0
  -28.4239   31.6030  -36.6226 C   0  0  0  0  0  0  0  0  0  0  0  0
  -29.5718   32.5050  -37.0147 C   0  0  0  0  0  0  0  0  0  0  0  0
  -30.3635   32.8993  -35.8756 N   0  0  0  0  0  0  0  0  0  0  0  0
  -30.6763   34.3140  -36.0240 C   0  0  0  0  0  0  0  0  0  0  0  0
  -29.6377   32.7345  -34.6394 C   0  0  0  0  0  0  0  0  0  0  0  0
  -29.3288   31.2760  -34.4230 C   0  0  0  0  0  0  0  0  0  0  0  0
  -27.5569   28.8422  -36.6509 C   0  0  0  0  0  0  0  0  0  0  0  0
  -26.0687   28.6632  -36.8527 C   0  0  0  0  0  0  0  0  0  0  0  0
  -23.3169   25.8557  -36.9285 C   0  0  0  0  0  0  0  0  0  0  0  0
  -23.1111   24.9463  -37.9746 C   0  0  0  0  0  0  0  0  0  0  0  0
  -24.1259   24.3013  -38.6219 C   0  0  0  0  0  0  0  0  0  0  0  0
  -23.9702   23.3957  -39.6770 N   0  0  0  0  0  0  0  0  0  0  0  0
  -22.7590   22.7843  -40.0847 C   0  0  0  0  0  0  0  0  0  0  0  0
  -22.2395   22.8689  -41.3116 N   0  0  0  0  0  0  0  0  0  0  0  0
  -21.1132   22.3048  -41.7437 C   0  0  0  0  0  0  0  0  0  0  0  0
  -20.4036   21.5505  -40.8262 C   0  0  0  0  0  0  0  0  0  0  0  0
  -20.9344   21.4572  -39.5491 C   0  0  0  0  0  0  0  0  0  0  0  0
  -22.0615   22.0384  -39.1657 N   0  0  0  0  0  0  0  0  0  0  0  0
  -20.3676   20.7107  -38.4513 N   0  0  0  0  0  0  0  0  0  0  0  0
  -21.4258   20.1847  -37.2182 S   0  0  0  0  0  6  0  0  0  0  0  0
  -22.6098   21.3749  -36.7163 C   0  0  0  0  0  0  0  0  0  0  0  0
  -20.8122   19.3750  -36.1352 O   0  0  0  0  0  0  0  0  0  0  0  0
  -22.2841   19.1109  -37.9510 O   0  0  0  0  0  0  0  0  0  0  0  0
  -19.0040   20.3641  -38.2732 C   0  0  0  0  0  0  0  0  0  0  0  0
  -18.6726   20.2842  -36.9403 C   0  0  0  0  0  0  0  0  0  0  0  0
  -17.3782   19.9263  -36.6270 C   0  0  0  0  0  0  0  0  0  0  0  0
  -16.4346   19.6551  -37.6210 C   0  0  0  0  0  0  0  0  0  0  0  0
  -16.7685   19.7383  -38.9485 C   0  0  0  0  0  0  0  0  0  0  0  0
  -18.0496   20.0927  -39.2665 C   0  0  0  0  0  0  0  0  0  0  0  0
  -18.2589   20.1815  -40.7166 C   0  0  0  0  0  0  0  0  0  0  0  0
  -17.5121   19.4768  -41.4346 O   0  0  0  0  0  0  0  0  0  0  0  0
  -19.2289   20.9925  -41.3944 N   0  0  0  0  0  0  0  0  0  0  0  0
  -18.9582   21.2618  -42.8011 C   0  0  0  0  0  0  0  0  0  0  0  0
  1  2  1  0
  2  3  1  0
  3  4  1  0
  4  5  2  0
  5  6  1  0
  6  7  1  0
  7  8  2  0
  7  9  1  0
  9 10  1  0
 10 11  1  0
 11 12  1  0
 12 13  1  0
 13 14  1  0
 14 15  1  0
 15 16  1  0
 16 17  1  0
 16 18  1  0
 18 19  1  0
 12 20  1  0
 20 21  1  0
  6 22  2  0
 22 23  1  0
 23 24  2  0
 24 25  1  0
 25 26  1  0
 26 27  2  0
 27 28  1  0
 28 29  2  0
 29 30  1  0
 30 31  2  0
 30 32  1  0
 32 33  1  0
 33 34  1  0
 33 35  2  0
 33 36  2  0
 32 37  1  0
 37 38  2  0
 38 39  1  0
 39 40  2  0
 40 41  1  0
 41 42  2  0
 42 43  1  0
 43 44  2  0
 43 45  1  0
 45 46  1  0
 24  4  1  0
 31 26  1  0
 42 37  1  0
 21  9  1  0
 45 29  1  0
 19 13  1  0
M  END
$$$$
