
     RDKit          3D

 34 36  0  0  0  0  0  0  0  0999 V2000
  -17.8536   33.6588  -23.4990 O   0  0  0  0  0  0  0  0  0  0  0  0
  -18.4186   34.5148  -22.7664 C   0  0  0  0  0  0  0  0  0  0  0  0
  -19.1353   34.1162  -21.6578 O   0  0  0  0  0  0  0  0  0  0  0  0
  -18.5061   33.5073  -20.5788 C   0  0  0  0  0  0  0  0  0  0  0  0
  -17.6257   34.4248  -19.7891 C   0  0  0  0  0  0  0  0  0  0  0  0
  -18.2733   35.6378  -19.6040 F   0  0  0  0  0  0  0  0  0  0  0  0
  -17.2718   33.8917  -18.5812 F   0  0  0  0  0  0  0  0  0  0  0  0
  -16.5035   34.6984  -20.5841 F   0  0  0  0  0  0  0  0  0  0  0  0
  -17.7729   32.2828  -21.0621 C   0  0  0  0  0  0  0  0  0  0  0  0
  -18.4953   31.6088  -22.0445 F   0  0  0  0  0  0  0  0  0  0  0  0
  -16.5527   32.6159  -21.6400 F   0  0  0  0  0  0  0  0  0  0  0  0
  -17.4966   31.3820  -20.0560 F   0  0  0  0  0  0  0  0  0  0  0  0
  -18.2885   35.8907  -23.1238 N   0  0  0  0  0  0  0  0  0  0  0  0
  -18.9727   36.9480  -22.3930 C   0  0  0  0  0  0  0  0  0  0  0  0
  -17.9347   38.0265  -22.1867 C   0  0  0  0  0  0  0  0  0  0  0  0
  -17.6160   38.6352  -23.4591 N   0  0  0  0  0  0  0  0  0  0  0  0
  -18.5250   39.7846  -23.6248 C   0  0  0  0  0  0  0  0  0  0  0  0
  -18.0705   40.9091  -22.7582 C   0  0  0  0  0  0  0  0  0  0  0  0
  -17.1411   40.7055  -21.7513 C   0  0  0  0  0  0  0  0  0  0  0  0
  -16.7189   41.7337  -20.9130 C   0  0  0  0  0  0  0  0  0  0  0  0
  -17.2313   42.9990  -21.0758 C   0  0  0  0  0  0  0  0  0  0  0  0
  -16.7969   44.0972  -20.1784 C   0  0  0  0  0  0  0  0  0  0  0  0
  -15.5624   43.8272  -19.6107 F   0  0  0  0  0  0  0  0  0  0  0  0
  -16.7094   45.3104  -20.8466 F   0  0  0  0  0  0  0  0  0  0  0  0
  -17.6759   44.2895  -19.1325 F   0  0  0  0  0  0  0  0  0  0  0  0
  -18.1527   43.2070  -22.0727 C   0  0  0  0  0  0  0  0  0  0  0  0
  -18.5776   42.1815  -22.9135 C   0  0  0  0  0  0  0  0  0  0  0  0
  -19.5338   42.4138  -23.9192 N   0  0  0  0  0  0  0  0  0  0  0  0
  -20.4616   41.4442  -24.4681 C   0  0  0  0  0  0  0  0  0  0  0  0
  -21.7774   42.2286  -24.5023 C   0  0  0  0  0  0  0  0  0  0  0  0
  -21.2816   43.5961  -24.9720 C   0  0  0  0  0  0  0  0  0  0  0  0
  -19.8057   43.6439  -24.6309 C   0  0  0  0  0  0  0  0  0  0  0  0
  -17.8654   37.7359  -24.5703 C   0  0  0  0  0  0  0  0  0  0  0  0
  -17.4622   36.3189  -24.2270 C   0  0  0  0  0  0  0  0  0  0  0  0
  1  2  2  0
  2  3  1  0
  3  4  1  0
  4  5  1  0
  5  6  1  0
  5  7  1  0
  5  8  1  0
  4  9  1  0
  9 10  1  0
  9 11  1  0
  9 12  1  0
  2 13  1  0
 13 14  1  0
 14 15  1  0
 15 16  1  0
 16 17  1  0
 17 18  1  0
 18 19  2  0
 19 20  1  0
 20 21  2  0
 21 22  1  0
 22 23  1  0
 22 24  1  0
 22 25  1  0
 21 26  1  0
 26 27  2  0
 27 28  1  0
 28 29  1  0
 29 30  1  0
 30 31  1  0
 31 32  1  0
 16 33  1  0
 33 34  1  0
 34 13  1  0
 27 18  1  0
 32 28  1  0
M  END
$$$$
