
     RDKit          3D

 14 14  0  0  0  0  0  0  0  0999 V2000
  -19.3562   39.1094  -22.6991 C   0  0  0  0  0  0  0  0  0  0  0  0
  -17.9669   39.0807  -22.0927 C   0  0  2  0  0  0  0  0  0  0  0  0
  -17.3853   40.3946  -22.2530 N   0  0  0  0  0  0  0  0  0  0  0  0
  -17.1266   38.0017  -22.7215 C   0  0  0  0  0  0  0  0  0  0  0  0
  -17.7718   36.6842  -22.6874 C   0  0  0  0  0  0  0  0  0  0  0  0
  -17.4782   35.7698  -21.7042 C   0  0  0  0  0  0  0  0  0  0  0  0
  -18.0662   34.5230  -21.6433 C   0  0  0  0  0  0  0  0  0  0  0  0
  -18.9859   34.1840  -22.6103 C   0  0  0  0  0  0  0  0  0  0  0  0
  -19.5796   32.9175  -22.5437 O   0  0  0  0  0  0  0  0  0  0  0  0
  -19.3171   35.0670  -23.6213 C   0  0  0  0  0  0  0  0  0  0  0  0
  -18.6999   36.3069  -23.6399 C   0  0  0  0  0  0  0  0  0  0  0  0
  -18.1347   38.8011  -20.6473 C   0  0  0  0  0  0  0  0  0  0  0  0
  -17.1634   38.9148  -19.8740 O   0  0  0  0  0  0  0  0  0  0  0  0
  -19.3646   38.4128  -20.1431 O   0  0  0  0  0  0  0  0  0  0  0  0
  2  1  1  6
  2  3  1  0
  2  4  1  0
  4  5  1  0
  5  6  2  0
  6  7  1  0
  7  8  2  0
  8  9  1  0
  8 10  1  0
 10 11  2  0
  2 12  1  0
 12 13  2  0
 12 14  1  0
 11  5  1  0
M  END
$$$$
