
     RDKit          3D

 15 16  0  0  0  0  0  0  0  0999 V2000
  -14.4178   -5.3754  -29.9572 C   0  0  0  0  0  0  0  0  0  0  0  0
  -14.4339   -3.9216  -29.9673 N   0  0  0  0  0  0  0  0  0  0  0  0
  -15.1768   -3.1685  -30.9078 C   0  0  0  0  0  0  0  0  0  0  0  0
  -15.4936   -3.6726  -32.0146 O   0  0  0  0  0  0  0  0  0  0  0  0
  -15.5425   -1.8716  -30.5788 O   0  0  0  0  0  0  0  0  0  0  0  0
  -15.6222   -0.9219  -31.6027 C   0  0  0  0  0  0  0  0  0  0  0  0
  -16.7081   -0.9868  -32.4516 C   0  0  0  0  0  0  0  0  0  0  0  0
  -16.8017   -0.0562  -33.4680 C   0  0  0  0  0  0  0  0  0  0  0  0
  -15.8489    0.9287  -33.6582 C   0  0  0  0  0  0  0  0  0  0  0  0
  -14.7718    0.9777  -32.8007 C   0  0  0  0  0  0  0  0  0  0  0  0
  -13.7980    1.9656  -32.9762 C   0  0  0  0  0  0  0  0  0  0  0  0
  -12.7282    1.9948  -32.1050 C   0  0  0  0  0  0  0  0  0  0  0  0
  -12.6413    1.0593  -31.0892 C   0  0  0  0  0  0  0  0  0  0  0  0
  -13.6078    0.0739  -30.9100 C   0  0  0  0  0  0  0  0  0  0  0  0
  -14.6749    0.0484  -31.7828 C   0  0  0  0  0  0  0  0  0  0  0  0
  1  2  1  0
  2  3  1  0
  3  4  2  0
  3  5  1  0
  5  6  1  0
  6  7  2  0
  7  8  1  0
  8  9  2  0
  9 10  1  0
 10 11  2  0
 11 12  1  0
 12 13  2  0
 13 14  1  0
 14 15  2  0
 15  6  1  0
 15 10  1  0
M  END
$$$$
