
     RDKit          3D

 29 31  0  0  0  0  0  0  0  0999 V2000
  -14.5101   18.7254  -30.3657 N   0  0  0  0  0  0  0  0  0  0  0  0
  -15.5221   17.8020  -30.0728 C   0  0  0  0  0  0  0  0  0  0  0  0
  -15.5230   17.3738  -28.8734 O   0  0  0  0  0  0  0  0  0  0  0  0
  -16.5327   17.3109  -30.9724 C   0  0  0  0  0  0  0  0  0  0  0  0
  -17.6143   18.1767  -31.2506 C   0  0  0  0  0  0  0  0  0  0  0  0
  -18.5885   17.7770  -32.1241 C   0  0  0  0  0  0  0  0  0  0  0  0
  -18.4734   16.5336  -32.7029 C   0  0  0  0  0  0  0  0  0  0  0  0
  -19.4918   16.1101  -33.6244 N   0  0  0  0  0  0  0  0  0  0  0  0
  -19.1755   16.0718  -35.0176 C   0  0  0  0  0  0  0  0  0  0  0  0
  -17.8083   16.1618  -35.3880 N   0  0  0  0  0  0  0  0  0  0  0  0
  -20.0932   15.9616  -35.8856 O   0  0  0  0  0  0  0  0  0  0  0  0
  -20.7840   15.7291  -33.1800 C   0  0  0  0  0  0  0  0  0  0  0  0
  -21.8004   16.6497  -33.2002 C   0  0  0  0  0  0  0  0  0  0  0  0
  -21.5872   17.9080  -33.6422 F   0  0  0  0  0  0  0  0  0  0  0  0
  -23.0907   16.3244  -32.7670 C   0  0  0  0  0  0  0  0  0  0  0  0
  -23.3551   15.0507  -32.3078 C   0  0  0  0  0  0  0  0  0  0  0  0
  -22.3391   14.1282  -32.2867 C   0  0  0  0  0  0  0  0  0  0  0  0
  -21.0529   14.4594  -32.7207 C   0  0  0  0  0  0  0  0  0  0  0  0
  -20.0673   13.5309  -32.6884 F   0  0  0  0  0  0  0  0  0  0  0  0
  -17.4404   15.7228  -32.4273 N   0  0  0  0  0  0  0  0  0  0  0  0
  -16.4442   16.0897  -31.5540 C   0  0  0  0  0  0  0  0  0  0  0  0
  -15.3544   15.1761  -31.2810 C   0  0  0  0  0  0  0  0  0  0  0  0
  -15.5797   13.8516  -30.8684 C   0  0  0  0  0  0  0  0  0  0  0  0
  -14.5439   12.9848  -30.6626 C   0  0  0  0  0  0  0  0  0  0  0  0
  -13.2488   13.4279  -30.8669 C   0  0  0  0  0  0  0  0  0  0  0  0
  -12.2362   12.5546  -30.6568 F   0  0  0  0  0  0  0  0  0  0  0  0
  -13.0111   14.7330  -31.2744 C   0  0  0  0  0  0  0  0  0  0  0  0
  -14.0590   15.6046  -31.4809 C   0  0  0  0  0  0  0  0  0  0  0  0
  -13.8663   16.8828  -31.8786 F   0  0  0  0  0  0  0  0  0  0  0  0
  1  2  1  0
  2  3  2  0
  2  4  1  0
  4  5  2  0
  5  6  1  0
  6  7  2  0
  7  8  1  0
  8  9  1  0
  9 10  1  0
  9 11  2  0
  8 12  1  0
 12 13  2  0
 13 14  1  0
 13 15  1  0
 15 16  2  0
 16 17  1  0
 17 18  2  0
 18 19  1  0
  7 20  1  0
 20 21  2  0
 21 22  1  0
 22 23  2  0
 23 24  1  0
 24 25  2  0
 25 26  1  0
 25 27  1  0
 27 28  2  0
 28 29  1  0
 21  4  1  0
 28 22  1  0
 18 12  1  0
M  END
$$$$
