
     RDKit          3D

 20 22  0  0  0  0  0  0  0  0999 V2000
  -17.9304   39.0958  -22.8598 O   0  0  0  0  0  0  0  0  0  0  0  0
  -17.8522   39.3175  -21.6029 C   0  0  0  0  0  0  0  0  0  0  0  0
  -17.6934   38.1751  -20.7965 N   0  0  0  0  0  0  0  0  0  0  0  0
  -18.3782   37.0352  -21.0405 O   0  0  0  0  0  0  0  0  0  0  0  0
  -17.9271   40.6676  -21.0953 C   0  0  0  0  0  0  0  0  0  0  0  0
  -18.1868   40.9234  -19.7732 C   0  0  0  0  0  0  0  0  0  0  0  0
  -18.2494   42.1935  -19.3353 N   0  0  0  0  0  0  0  0  0  0  0  0
  -18.0640   43.2537  -20.1568 C   0  0  0  0  0  0  0  0  0  0  0  0
  -18.1544   44.5630  -19.5957 N   0  0  0  0  0  0  0  0  0  0  0  0
  -17.8987   45.7650  -20.3576 C   0  0  0  0  0  0  0  0  0  0  0  0
  -18.1228   47.0355  -19.5878 C   0  0  0  0  0  0  0  0  0  0  0  0
  -18.0307   48.2855  -20.1501 C   0  0  0  0  0  0  0  0  0  0  0  0
  -18.2453   49.4391  -19.4145 C   0  0  0  0  0  0  0  0  0  0  0  0
  -18.5624   49.3706  -18.0764 C   0  0  0  0  0  0  0  0  0  0  0  0
  -18.6583   48.1221  -17.4979 C   0  0  0  0  0  0  0  0  0  0  0  0
  -18.4401   46.9720  -18.2490 C   0  0  0  0  0  0  0  0  0  0  0  0
  -18.1705   45.8389  -21.8201 C   0  0  0  0  0  0  0  0  0  0  0  0
  -16.7507   45.7629  -21.3227 C   0  0  0  0  0  0  0  0  0  0  0  0
  -17.8125   43.0229  -21.4358 N   0  0  0  0  0  0  0  0  0  0  0  0
  -17.7448   41.7689  -21.8976 C   0  0  0  0  0  0  0  0  0  0  0  0
  1  2  2  0
  2  3  1  0
  3  4  1  0
  2  5  1  0
  5  6  2  0
  6  7  1  0
  7  8  2  0
  8  9  1  0
  9 10  1  0
 10 11  1  0
 11 12  2  0
 12 13  1  0
 13 14  2  0
 14 15  1  0
 15 16  2  0
 10 17  1  0
 17 18  1  0
  8 19  1  0
 19 20  2  0
 20  5  1  0
 18 10  1  0
 16 11  1  0
M  END
$$$$
