
     RDKit          3D

 28 32  0  0  0  0  0  0  0  0999 V2000
  -27.7591   13.9435  -26.0595 C   0  0  0  0  0  0  0  0  0  0  0  0
  -29.0000   14.3989  -25.6663 C   0  0  0  0  0  0  0  0  0  0  0  0
  -29.3605   15.6978  -25.9463 C   0  0  0  0  0  0  0  0  0  0  0  0
  -28.5225   16.5679  -26.6098 C   0  0  0  0  0  0  0  0  0  0  0  0
  -28.9306   17.9380  -26.8904 C   0  0  0  0  0  0  0  0  0  0  0  0
  -29.8393   18.6724  -26.3290 O   0  0  0  0  0  0  0  0  0  0  0  0
  -29.8927   19.8660  -26.8847 C   0  0  0  0  0  0  0  0  0  0  0  0
  -30.6521   20.9537  -26.6581 N   0  0  0  0  0  0  0  0  0  0  0  0
  -30.5284   22.0873  -27.3654 C   0  0  0  0  0  0  0  0  0  0  0  0
  -29.6120   22.1493  -28.3418 N   0  0  0  0  0  0  0  0  0  0  0  0
  -28.8021   21.1101  -28.6453 C   0  0  0  0  0  0  0  0  0  0  0  0
  -27.8508   21.2309  -29.6814 N   0  0  0  0  0  0  0  0  0  0  0  0
  -28.2205   21.6433  -31.0285 C   0  0  0  0  0  0  0  0  0  0  0  0
  -28.0731   23.1210  -31.1737 C   0  0  2  0  0  0  0  0  0  0  0  0
  -28.4185   23.5420  -32.6014 C   0  0  0  0  0  0  0  0  0  0  0  0
  -27.8005   24.9338  -32.6398 C   0  0  0  0  0  0  0  0  0  0  0  0
  -26.7793   24.8677  -31.5250 C   0  0  0  0  0  0  0  0  0  0  0  0
  -26.7349   23.5219  -31.1142 O   0  0  0  0  0  0  0  0  0  0  0  0
  -28.9407   19.9553  -27.9122 C   0  0  0  0  0  0  0  0  0  0  0  0
  -28.3380   18.7182  -27.9012 C   0  0  0  0  0  0  0  0  0  0  0  0
  -27.2739   18.2872  -28.7813 C   0  0  0  0  0  0  0  0  0  0  0  0
  -25.9671   18.7178  -28.6722 C   0  0  0  0  0  0  0  0  0  0  0  0
  -24.9384   18.2950  -29.4867 C   0  0  0  0  0  0  0  0  0  0  0  0
  -25.2702   17.3799  -30.4666 C   0  0  0  0  0  0  0  0  0  0  0  0
  -26.5511   16.9033  -30.6380 C   0  0  0  0  0  0  0  0  0  0  0  0
  -27.5360   17.3618  -29.7949 C   0  0  0  0  0  0  0  0  0  0  0  0
  -27.2931   16.0621  -26.9808 C   0  0  0  0  0  0  0  0  0  0  0  0
  -26.8815   14.7716  -26.7262 C   0  0  0  0  0  0  0  0  0  0  0  0
  1  2  2  0
  2  3  1  0
  3  4  2  0
  4  5  1  0
  5  6  1  0
  6  7  1  0
  7  8  2  0
  8  9  1  0
  9 10  2  0
 10 11  1  0
 11 12  1  0
 12 13  1  0
 14 13  1  6
 14 15  1  0
 15 16  1  0
 16 17  1  0
 17 18  1  0
 11 19  2  0
 19 20  1  0
 20 21  1  0
 21 22  2  0
 22 23  1  0
 23 24  2  0
 24 25  1  0
 25 26  2  0
  4 27  1  0
 27 28  2  0
 28  1  1  0
 20  5  2  0
 26 21  1  0
 19  7  1  0
 18 14  1  0
M  END
$$$$
