
     RDKit          3D

 22 22  0  0  0  0  0  0  0  0999 V2000
  -20.1222   33.3620  -20.9580 C   0  0  0  0  0  0  0  0  0  0  0  0
  -19.4373   34.6769  -21.2440 C   0  0  0  0  0  0  0  0  0  0  0  0
  -19.1716   34.7683  -22.7111 N   0  0  0  0  0  0  0  0  0  0  0  0
  -19.1757   33.5089  -23.3828 C   0  0  0  0  0  0  0  0  0  0  0  0
  -19.3816   32.3268  -22.4953 C   0  0  0  0  0  0  0  0  0  0  0  0
  -18.9097   36.0000  -23.2848 C   0  0  0  0  0  0  0  0  0  0  0  0
  -18.7891   35.9686  -24.6057 O   0  0  0  0  0  0  0  0  0  0  0  0
  -18.7360   37.3242  -22.7646 C   0  0  0  0  0  0  0  0  0  0  0  0
  -17.3641   37.7257  -22.3912 C   0  0  0  0  0  0  0  0  0  0  0  0
  -16.2701   38.0287  -22.0854 N   0  0  0  0  0  0  0  0  0  0  0  0
  -19.6248   38.2559  -22.5305 C   0  0  0  0  0  0  0  0  0  0  0  0
  -19.2719   39.6748  -22.2641 C   0  0  0  0  0  0  0  0  0  0  0  0
  -19.5325   40.6766  -23.1638 C   0  0  0  0  0  0  0  0  0  0  0  0
  -19.1942   42.0064  -22.9434 C   0  0  0  0  0  0  0  0  0  0  0  0
  -19.4621   43.0102  -23.8605 O   0  0  0  0  0  0  0  0  0  0  0  0
  -18.5652   42.3304  -21.7576 C   0  0  0  0  0  0  0  0  0  0  0  0
  -18.1983   43.6520  -21.4757 O   0  0  0  0  0  0  0  0  0  0  0  0
  -18.2804   41.3473  -20.8124 C   0  0  0  0  0  0  0  0  0  0  0  0
  -17.6362   41.7123  -19.6085 N   0  0  0  0  0  4  0  0  0  0  0  0
  -17.5696   40.8929  -18.6831 O   0  0  0  0  0  0  0  0  0  0  0  0
  -17.0993   42.9515  -19.4813 O   0  0  0  0  0  1  0  0  0  0  0  0
  -18.6420   40.0342  -21.0885 C   0  0  0  0  0  0  0  0  0  0  0  0
  1  2  1  0
  2  3  1  0
  3  4  1  0
  4  5  1  0
  3  6  1  0
  6  7  2  0
  6  8  1  0
  8  9  1  0
  9 10  3  0
  8 11  2  0
 11 12  1  0
 12 13  2  0
 13 14  1  0
 14 15  1  0
 14 16  2  0
 16 17  1  0
 16 18  1  0
 18 19  1  0
 19 20  2  0
 19 21  1  0
 18 22  2  0
 22 12  1  0
M  CHG  2  19   1  21  -1
M  END
$$$$
