
     RDKit          3D

 30 34  0  0  0  0  0  0  0  0999 V2000
  -18.7567   39.6329  -18.3043 C   0  0  0  0  0  0  0  0  0  0  0  0
  -18.8555   39.9543  -19.7578 C   0  0  0  0  0  0  0  0  0  0  0  0
  -19.4474   39.2820  -20.7329 N   0  0  0  0  0  0  0  0  0  0  0  0
  -19.2976   39.9365  -21.9236 C   0  0  0  0  0  0  0  0  0  0  0  0
  -19.8271   39.5114  -23.2089 C   0  0  0  0  0  0  0  0  0  0  0  0
  -20.5078   40.2499  -24.1599 C   0  0  0  0  0  0  0  0  0  0  0  0
  -20.8268   39.4409  -25.1879 N   0  0  0  0  0  0  0  0  0  0  0  0
  -20.3901   38.2141  -24.9575 N   0  0  0  0  0  0  0  0  0  0  0  0
  -20.5080   37.0249  -25.7821 C   0  0  0  0  0  0  0  0  0  0  0  0
  -19.7685   38.2287  -23.7420 C   0  0  0  0  0  0  0  0  0  0  0  0
  -19.1364   37.0901  -23.0944 C   0  0  0  0  0  0  0  0  0  0  0  0
  -19.6110   36.4760  -21.9559 C   0  0  0  0  0  0  0  0  0  0  0  0
  -18.9003   35.3941  -21.4386 C   0  0  0  0  0  0  0  0  0  0  0  0
  -17.7460   34.9316  -22.0365 C   0  0  0  0  0  0  0  0  0  0  0  0
  -16.9844   33.7636  -21.4709 C   0  0  0  0  0  0  0  0  0  0  0  0
  -17.8294   32.9781  -20.7412 F   0  0  0  0  0  0  0  0  0  0  0  0
  -16.0254   34.2673  -20.6055 F   0  0  0  0  0  0  0  0  0  0  0  0
  -16.3611   33.0916  -22.4844 F   0  0  0  0  0  0  0  0  0  0  0  0
  -17.3177   35.5834  -23.1729 C   0  0  0  0  0  0  0  0  0  0  0  0
  -18.0013   36.6188  -23.6644 N   0  0  0  0  0  0  0  0  0  0  0  0
  -18.5696   41.0648  -21.6249 C   0  0  0  0  0  0  0  0  0  0  0  0
  -18.1254   42.0918  -22.4159 C   0  0  0  0  0  0  0  0  0  0  0  0
  -18.3178   42.1729  -23.8019 N   0  0  0  0  0  0  0  0  0  0  0  0
  -19.3235   42.5664  -24.7387 C   0  0  0  0  0  0  0  0  0  0  0  0
  -18.6808   41.7164  -25.8403 C   0  0  0  0  0  0  0  0  0  0  0  0
  -17.4595   41.8117  -24.9417 C   0  0  0  0  0  0  0  0  0  0  0  0
  -17.4200   43.0899  -21.7968 N   0  0  0  0  0  0  0  0  0  0  0  0
  -17.1591   43.0954  -20.4956 C   0  0  0  0  0  0  0  0  0  0  0  0
  -17.6151   42.0693  -19.7745 N   0  0  0  0  0  0  0  0  0  0  0  0
  -18.3003   41.0668  -20.2754 N   0  0  0  0  0  0  0  0  0  0  0  0
  1  2  1  0
  2  3  2  0
  3  4  1  0
  4  5  1  0
  5  6  1  0
  6  7  2  0
  7  8  1  0
  8  9  1  0
  8 10  1  0
 10 11  1  0
 11 12  2  0
 12 13  1  0
 13 14  2  0
 14 15  1  0
 15 16  1  0
 15 17  1  0
 15 18  1  0
 14 19  1  0
 19 20  2  0
  4 21  2  0
 21 22  1  0
 22 23  1  0
 23 24  1  0
 24 25  1  0
 25 26  1  0
 22 27  2  0
 27 28  1  0
 28 29  2  0
 29 30  1  0
 30  2  1  0
 10  5  2  0
 20 11  1  0
 30 21  1  0
 26 23  1  0
M  END
$$$$
