
     RDKit          3D

 25 27  0  0  0  0  0  0  0  0999 V2000
  -22.0139    2.6155  -32.7728 C   0  0  0  0  0  0  0  0  0  0  0  0
  -21.5709    1.2933  -32.9472 O   0  0  0  0  0  0  0  0  0  0  0  0
  -20.2367    0.9311  -33.0278 C   0  0  0  0  0  0  0  0  0  0  0  0
  -19.2815    1.5902  -33.7685 C   0  0  0  0  0  0  0  0  0  0  0  0
  -17.9828    1.1379  -33.7712 C   0  0  0  0  0  0  0  0  0  0  0  0
  -17.5593    0.0388  -33.0650 C   0  0  0  0  0  0  0  0  0  0  0  0
  -16.1445   -0.3695  -33.0983 C   0  0  0  0  0  0  0  0  0  0  0  0
  -15.2417    0.6034  -32.4646 C   0  0  0  0  0  0  0  0  0  0  0  0
  -15.7039    1.6533  -31.7490 N   0  0  0  0  0  0  0  0  0  0  0  0
  -14.9081    2.5409  -31.1307 C   0  0  0  0  0  0  0  0  0  0  0  0
  -13.5453    2.3930  -31.2178 C   0  0  0  0  0  0  0  0  0  0  0  0
  -13.0068    1.3483  -31.9305 C   0  0  0  0  0  0  0  0  0  0  0  0
  -11.6342    1.1840  -32.0385 C   0  0  0  0  0  0  0  0  0  0  0  0
  -11.0427    0.1701  -32.7418 C   0  0  0  0  0  0  0  0  0  0  0  0
   -9.6845   -0.0181  -32.8624 O   0  0  0  0  0  0  0  0  0  0  0  0
   -8.6423    0.7973  -32.4596 C   0  0  0  0  0  0  0  0  0  0  0  0
  -11.9094   -0.7323  -33.3734 C   0  0  0  0  0  0  0  0  0  0  0  0
  -11.3137   -1.7540  -34.0838 O   0  0  0  0  0  0  0  0  0  0  0  0
  -11.7837   -3.0493  -34.2551 C   0  0  0  0  0  0  0  0  0  0  0  0
  -13.2730   -0.5686  -33.2636 C   0  0  0  0  0  0  0  0  0  0  0  0
  -13.8808    0.4461  -32.5595 C   0  0  0  0  0  0  0  0  0  0  0  0
  -18.5265   -0.6254  -32.3180 C   0  0  0  0  0  0  0  0  0  0  0  0
  -19.8383   -0.1936  -32.2947 C   0  0  0  0  0  0  0  0  0  0  0  0
  -20.8051   -0.8489  -31.5481 O   0  0  0  0  0  0  0  0  0  0  0  0
  -20.4131   -1.5049  -30.3632 C   0  0  0  0  0  0  0  0  0  0  0  0
  1  2  1  0
  2  3  1  0
  3  4  2  0
  4  5  1  0
  5  6  2  0
  6  7  1  0
  7  8  1  0
  8  9  2  0
  9 10  1  0
 10 11  2  0
 11 12  1  0
 12 13  2  0
 13 14  1  0
 14 15  1  0
 15 16  1  0
 14 17  2  0
 17 18  1  0
 18 19  1  0
 17 20  1  0
 20 21  2  0
  6 22  1  0
 22 23  2  0
 23 24  1  0
 24 25  1  0
 23  3  1  0
 21  8  1  0
 21 12  1  0
M  END
$$$$
