
     RDKit          3D

 29 31  0  0  0  0  0  0  0  0999 V2000
  -23.9502   21.3833  -30.1378 C   0  0  0  0  0  0  0  0  0  0  0  0
  -23.9972   19.9255  -30.2786 C   0  0  0  0  0  0  0  0  0  0  0  0
  -24.9956   19.2850  -29.8219 N   0  0  0  0  0  0  0  0  0  0  0  0
  -26.0097   19.8927  -29.0583 N   0  0  0  0  0  0  0  0  0  0  0  0
  -26.2913   19.3088  -27.7984 C   0  0  0  0  0  0  0  0  0  0  0  0
  -25.3962   18.6304  -27.1877 O   0  0  0  0  0  0  0  0  0  0  0  0
  -27.5627   19.4204  -27.1138 C   0  0  0  0  0  0  0  0  0  0  0  0
  -27.6545   19.6069  -25.7511 C   0  0  0  0  0  0  0  0  0  0  0  0
  -28.8837   19.7111  -25.1183 C   0  0  0  0  0  0  0  0  0  0  0  0
  -30.0563   19.6309  -25.8370 C   0  0  0  0  0  0  0  0  0  0  0  0
  -29.9790   19.4453  -27.1946 C   0  0  0  0  0  0  0  0  0  0  0  0
  -31.4388   19.3325  -28.1818 S   0  0  0  0  0  6  0  0  0  0  0  0
  -32.1580   20.6501  -28.1936 O   0  0  0  0  0  0  0  0  0  0  0  0
  -31.0831   19.0099  -29.6058 O   0  0  0  0  0  0  0  0  0  0  0  0
  -32.4873   18.1104  -27.5963 N   0  0  0  0  0  0  0  0  0  0  0  0
  -33.2208   17.4244  -28.5925 C   0  0  0  0  0  0  0  0  0  0  0  0
  -32.7980   16.0312  -28.8953 C   0  0  0  0  0  0  0  0  0  0  0  0
  -32.2403   15.3500  -27.8277 O   0  0  0  0  0  0  0  0  0  0  0  0
  -32.5340   15.9468  -26.6039 C   0  0  0  0  0  0  0  0  0  0  0  0
  -31.8358   17.2905  -26.6211 C   0  0  0  0  0  0  0  0  0  0  0  0
  -28.7417   19.3441  -27.8039 C   0  0  0  0  0  0  0  0  0  0  0  0
  -22.8698   19.2521  -30.9529 C   0  0  0  0  0  0  0  0  0  0  0  0
  -21.6899   19.9116  -31.2076 C   0  0  0  0  0  0  0  0  0  0  0  0
  -20.6139   19.3238  -31.8329 C   0  0  0  0  0  0  0  0  0  0  0  0
  -19.1739   20.2837  -32.0925 Cl  0  0  0  0  0  0  0  0  0  0  0  0
  -20.7229   18.0085  -32.2239 C   0  0  0  0  0  0  0  0  0  0  0  0
  -21.8852   17.3188  -31.9862 C   0  0  0  0  0  0  0  0  0  0  0  0
  -22.9629   17.9305  -31.3524 C   0  0  0  0  0  0  0  0  0  0  0  0
  -24.1505   17.2280  -31.1087 O   0  0  0  0  0  0  0  0  0  0  0  0
  1  2  1  0
  2  3  2  0
  3  4  1  0
  4  5  1  0
  5  6  2  0
  5  7  1  0
  7  8  2  0
  8  9  1  0
  9 10  2  0
 10 11  1  0
 11 12  1  0
 12 13  2  0
 12 14  2  0
 12 15  1  0
 15 16  1  0
 16 17  1  0
 17 18  1  0
 18 19  1  0
 19 20  1  0
 11 21  2  0
  2 22  1  0
 22 23  2  0
 23 24  1  0
 24 25  1  0
 24 26  2  0
 26 27  1  0
 27 28  2  0
 28 29  1  0
 21  7  1  0
 28 22  1  0
 20 15  1  0
M  END
$$$$
