
     RDKit          3D

 27 29  0  0  0  0  0  0  0  0999 V2000
  -17.3040   42.6231  -23.7631 C   0  0  0  0  0  0  0  0  0  0  0  0
  -18.2009   41.5255  -24.1142 C   0  0  0  0  0  0  0  0  0  0  0  0
  -19.1213   41.6762  -25.2376 N   0  0  0  0  0  0  0  0  0  0  0  0
  -19.8741   40.4725  -25.5698 C   0  0  0  0  0  0  0  0  0  0  0  0
  -19.8118   39.3049  -24.9388 C   0  0  0  0  0  0  0  0  0  0  0  0
  -20.5915   38.1773  -25.3395 C   0  0  0  0  0  0  0  0  0  0  0  0
  -21.4889   38.2530  -26.5132 C   0  0  0  0  0  0  0  0  0  0  0  0
  -20.5382   37.0400  -24.6667 C   0  0  0  0  0  0  0  0  0  0  0  0
  -19.7146   36.8979  -23.5180 C   0  0  0  0  0  0  0  0  0  0  0  0
  -19.7483   38.0201  -22.1148 S   0  0  0  0  0  0  0  0  0  0  0  0
  -18.4434   37.1647  -21.1632 C   0  0  0  0  0  0  0  0  0  0  0  0
  -17.8966   37.4355  -19.9509 C   0  0  0  0  0  0  0  0  0  0  0  0
  -16.8998   36.5972  -19.4688 C   0  0  0  0  0  0  0  0  0  0  0  0
  -16.5535   35.5479  -20.2831 C   0  0  0  0  0  0  0  0  0  0  0  0
  -17.1217   35.3020  -21.4963 C   0  0  0  0  0  0  0  0  0  0  0  0
  -18.1503   36.1512  -22.0150 C   0  0  0  0  0  0  0  0  0  0  0  0
  -18.7593   36.0153  -23.1533 N   0  0  0  0  0  4  0  0  0  0  0  0
  -18.4693   34.9107  -24.1421 C   0  0  0  0  0  0  0  0  0  0  0  0
  -19.3637   33.7433  -23.8447 C   0  0  0  0  0  0  0  0  0  0  0  0
  -20.8604   40.9205  -26.9703 S   0  0  0  0  0  0  0  0  0  0  0  0
  -20.3430   42.6152  -27.0283 C   0  0  0  0  0  0  0  0  0  0  0  0
  -20.7652   43.5852  -27.8901 C   0  0  0  0  0  0  0  0  0  0  0  0
  -20.2470   44.8507  -27.8083 C   0  0  0  0  0  0  0  0  0  0  0  0
  -19.3089   45.0486  -26.8286 C   0  0  0  0  0  0  0  0  0  0  0  0
  -18.8823   44.0838  -25.9629 C   0  0  0  0  0  0  0  0  0  0  0  0
  -19.4094   42.7715  -26.0354 C   0  0  0  0  0  0  0  0  0  0  0  0
  -19.0710   39.0803  -24.2527 I   0  0  0  0  0 15  0  0  0  0  0  0
  1  2  1  0
  2  3  1  0
  3  4  1  0
  4  5  2  3
  5  6  1  0
  6  7  1  0
  6  8  2  3
  8  9  1  0
  9 10  1  0
 10 11  1  0
 11 12  2  0
 12 13  1  0
 13 14  2  0
 14 15  1  0
 15 16  2  0
 16 17  1  0
 17 18  1  0
 18 19  1  0
  4 20  1  0
 20 21  1  0
 21 22  2  0
 22 23  1  0
 23 24  2  0
 24 25  1  0
 25 26  2  0
 26  3  1  0
 17  9  2  0
 26 21  1  0
 16 11  1  0
M  CHG  2  17   1  27  -1
M  END
$$$$
