
     RDKit          3D

 23 26  0  0  0  0  0  0  0  0999 V2000
  -18.7453   32.9667  -25.2138 N   0  0  0  0  0  0  0  0  0  0  0  0
  -18.6894   34.0539  -24.7838 C   0  0  0  0  0  0  0  0  0  0  0  0
  -18.6303   35.4292  -24.2646 C   0  0  0  0  0  0  0  0  0  0  0  0
  -17.4727   35.6187  -23.3253 C   0  0  2  0  0  0  0  0  0  0  0  0
  -17.7068   34.9404  -21.9910 C   0  0  0  0  0  0  0  0  0  0  0  0
  -19.1380   35.0532  -21.5923 C   0  0  0  0  0  0  0  0  0  0  0  0
  -19.7666   33.8759  -22.3157 C   0  0  0  0  0  0  0  0  0  0  0  0
  -18.7956   32.7802  -21.8716 C   0  0  0  0  0  0  0  0  0  0  0  0
  -17.4720   33.4541  -22.0721 C   0  0  0  0  0  0  0  0  0  0  0  0
  -17.2115   37.0392  -23.1583 N   0  0  0  0  0  0  0  0  0  0  0  0
  -17.8710   37.8815  -22.3298 C   0  0  0  0  0  0  0  0  0  0  0  0
  -17.3527   39.1547  -22.4344 C   0  0  0  0  0  0  0  0  0  0  0  0
  -17.8135   40.3210  -21.6914 C   0  0  0  0  0  0  0  0  0  0  0  0
  -17.0692   41.4328  -21.5587 N   0  0  0  0  0  0  0  0  0  0  0  0
  -17.4680   42.5172  -20.8817 C   0  0  0  0  0  0  0  0  0  0  0  0
  -18.6758   42.5192  -20.2928 N   0  0  0  0  0  0  0  0  0  0  0  0
  -19.4808   41.4223  -20.3894 C   0  0  0  0  0  0  0  0  0  0  0  0
  -20.7119   41.1730  -19.9006 N   0  0  0  0  0  0  0  0  0  0  0  0
  -21.0883   39.9372  -20.2672 C   0  0  0  0  0  0  0  0  0  0  0  0
  -20.0773   39.3762  -21.0094 C   0  0  0  0  0  0  0  0  0  0  0  0
  -19.0572   40.3212  -21.0859 C   0  0  0  0  0  0  0  0  0  0  0  0
  -16.3429   39.0504  -23.3681 C   0  0  0  0  0  0  0  0  0  0  0  0
  -16.2960   37.7705  -23.7717 N   0  0  0  0  0  0  0  0  0  0  0  0
  1  2  3  0
  2  3  1  0
  4  3  1  6
  4  5  1  0
  5  6  1  0
  6  7  1  0
  7  8  1  0
  8  9  1  0
  4 10  1  0
 10 11  1  0
 11 12  2  0
 12 13  1  0
 13 14  2  0
 14 15  1  0
 15 16  2  0
 16 17  1  0
 17 18  1  0
 18 19  1  0
 19 20  2  0
 20 21  1  0
 12 22  1  0
 22 23  2  0
  9  5  1  0
 23 10  1  0
 21 13  1  0
 21 17  2  0
M  END
$$$$
