
     RDKit          3D

 26 29  0  0  0  0  0  0  0  0999 V2000
  -25.4482   18.9265  -27.9737 N   0  0  0  0  0  0  0  0  0  0  0  0
  -26.1198   18.5718  -26.7031 C   0  0  2  0  0  0  0  0  0  0  0  0
  -27.5594   18.8232  -26.7467 C   0  0  0  0  0  0  0  0  0  0  0  0
  -28.3704   18.8423  -27.9458 C   0  0  0  0  0  0  0  0  0  0  0  0
  -29.0848   17.7062  -28.4932 C   0  0  0  0  0  0  0  0  0  0  0  0
  -29.0846   16.4755  -27.8150 C   0  0  0  0  0  0  0  0  0  0  0  0
  -29.6430   15.3733  -28.4010 C   0  0  0  0  0  0  0  0  0  0  0  0
  -30.2165   15.4265  -29.6501 C   0  0  0  0  0  0  0  0  0  0  0  0
  -30.2133   16.6356  -30.2913 C   0  0  0  0  0  0  0  0  0  0  0  0
  -29.6585   17.8039  -29.7399 C   0  0  0  0  0  0  0  0  0  0  0  0
  -29.7478   18.9854  -30.4644 O   0  0  0  0  0  0  0  0  0  0  0  0
  -29.2328   20.1382  -29.8762 C   0  0  0  0  0  0  0  0  0  0  0  0
  -29.3425   21.3430  -30.5775 C   0  0  0  0  0  0  0  0  0  0  0  0
  -28.8932   22.5287  -30.0795 C   0  0  0  0  0  0  0  0  0  0  0  0
  -28.3150   22.5167  -28.8412 C   0  0  0  0  0  0  0  0  0  0  0  0
  -28.2016   21.3406  -28.1502 C   0  0  0  0  0  0  0  0  0  0  0  0
  -28.6450   20.1269  -28.6332 C   0  0  0  0  0  0  0  0  0  0  0  0
  -25.5953   19.7418  -25.8041 C   0  0  0  0  0  0  0  0  0  0  0  0
  -26.1167   20.0027  -24.7276 O   0  0  0  0  0  0  0  0  0  0  0  0
  -24.5176   20.4881  -26.2507 O   0  0  0  0  0  0  0  0  0  0  0  0
  -25.4355   17.4198  -26.1510 C   0  0  1  0  0  0  0  0  0  0  0  0
  -25.9934   16.1318  -25.7114 C   0  0  0  0  0  0  0  0  0  0  0  0
  -25.3577   16.1753  -27.0534 C   0  0  2  0  0  0  0  0  0  0  0  0
  -24.0187   15.5929  -27.2748 C   0  0  0  0  0  0  0  0  0  0  0  0
  -23.3423   15.1939  -26.2940 O   0  0  0  0  0  0  0  0  0  0  0  0
  -23.4509   15.4575  -28.5325 O   0  0  0  0  0  0  0  0  0  0  0  0
  2  1  1  6
  2  3  1  0
  3  4  1  0
  4  5  1  0
  5  6  2  0
  6  7  1  0
  7  8  2  0
  8  9  1  0
  9 10  2  0
 10 11  1  0
 11 12  1  0
 12 13  2  0
 13 14  1  0
 14 15  2  0
 15 16  1  0
 16 17  2  0
  2 18  1  0
 18 19  2  0
 18 20  1  0
  2 21  1  0
 21 22  1  1
 22 23  1  0
 23 24  1  1
 24 25  2  0
 24 26  1  0
 17  4  1  0
 23 21  1  0
 10  5  1  0
 17 12  1  0
M  END
$$$$
