
     RDKit          3D

 22 24  0  0  0  0  0  0  0  0999 V2000
  -19.9961   31.4456  -20.6967 C   0  0  0  0  0  0  0  0  0  0  0  0
  -19.6290   32.2634  -21.8097 O   0  0  0  0  0  0  0  0  0  0  0  0
  -19.5197   33.6481  -21.6679 C   0  0  0  0  0  0  0  0  0  0  0  0
  -19.8573   34.1815  -20.5959 O   0  0  0  0  0  0  0  0  0  0  0  0
  -19.0315   34.4313  -22.7283 N   0  0  0  0  0  0  0  0  0  0  0  0
  -18.9664   35.8495  -22.6637 C   0  0  0  0  0  0  0  0  0  0  0  0
  -19.0766   36.6960  -23.7331 N   0  0  0  0  0  0  0  0  0  0  0  0
  -18.9653   37.9748  -23.3460 C   0  0  0  0  0  0  0  0  0  0  0  0
  -18.9915   39.1949  -23.9948 C   0  0  0  0  0  0  0  0  0  0  0  0
  -18.8279   40.3584  -23.2653 C   0  0  0  0  0  0  0  0  0  0  0  0
  -18.6381   40.3586  -21.9087 C   0  0  0  0  0  0  0  0  0  0  0  0
  -18.4147   41.5944  -21.1306 C   0  0  0  0  0  0  0  0  0  0  0  0
  -19.2467   41.9026  -20.2349 O   0  0  0  0  0  0  0  0  0  0  0  0
  -17.2541   42.4320  -21.3976 C   0  0  0  0  0  0  0  0  0  0  0  0
  -16.0750   42.3842  -20.6900 C   0  0  0  0  0  0  0  0  0  0  0  0
  -15.0081   43.2090  -21.0447 C   0  0  0  0  0  0  0  0  0  0  0  0
  -15.1186   44.0902  -22.1157 C   0  0  0  0  0  0  0  0  0  0  0  0
  -16.2907   44.1397  -22.8224 C   0  0  0  0  0  0  0  0  0  0  0  0
  -17.3469   43.3101  -22.4562 C   0  0  0  0  0  0  0  0  0  0  0  0
  -18.6163   39.1240  -21.2770 C   0  0  0  0  0  0  0  0  0  0  0  0
  -18.7773   37.9576  -21.9872 C   0  0  0  0  0  0  0  0  0  0  0  0
  -18.7832   36.6473  -21.5992 N   0  0  0  0  0  0  0  0  0  0  0  0
  1  2  1  0
  2  3  1  0
  3  4  2  0
  3  5  1  0
  5  6  1  0
  6  7  2  0
  7  8  1  0
  8  9  2  0
  9 10  1  0
 10 11  2  0
 11 12  1  0
 12 13  2  0
 12 14  1  0
 14 15  2  0
 15 16  1  0
 16 17  2  0
 17 18  1  0
 18 19  2  0
 11 20  1  0
 20 21  2  0
 21 22  1  0
 22  6  1  0
 21  8  1  0
 19 14  1  0
M  END
$$$$
