
     RDKit          3D

 29 31  0  0  0  0  0  0  0  0999 V2000
  -47.7628    8.4433  -43.1306 C   0  0  0  0  0  0  0  0  0  0  0  0
  -46.6701    7.7437  -42.8879 C   0  0  0  0  0  0  0  0  0  0  0  0
  -45.3364    8.2491  -43.3767 C   0  0  1  0  0  0  0  0  0  0  0  0
  -45.2281    7.6679  -44.7946 C   0  0  0  0  0  0  0  0  0  0  0  0
  -45.4899    9.7437  -43.5021 C   0  0  0  0  0  0  0  0  0  0  0  0
  -44.1907   10.4669  -43.2214 C   0  0  0  0  0  0  0  0  0  0  0  0
  -43.9575   11.4102  -43.9087 O   0  0  0  0  0  0  0  0  0  0  0  0
  -43.4151    9.8865  -42.1358 C   0  0  1  0  0  0  0  0  0  0  0  0
  -44.2611    9.9024  -40.9932 O   0  0  0  0  0  0  0  0  0  0  0  0
  -43.1833    8.4456  -42.4431 C   0  0  2  0  0  0  0  0  0  0  0  0
  -42.4369    8.1884  -43.6862 C   0  0  0  0  0  0  0  0  0  0  0  0
  -44.4118    7.8051  -42.5152 O   0  0  0  0  0  0  0  0  0  0  0  0
  -42.5534    7.8396  -41.1881 C   0  0  1  0  0  0  0  0  0  0  0  0
  -42.5595    6.4526  -41.1882 O   0  0  0  0  0  0  0  0  0  0  0  0
  -41.7793    5.6145  -41.9218 C   0  0  0  0  0  0  0  0  0  0  0  0
  -40.9416    6.0686  -43.0688 C   0  0  0  0  0  0  0  0  0  0  0  0
  -41.7939    4.4154  -41.5858 O   0  0  0  0  0  0  0  0  0  0  0  0
  -41.2936    8.5067  -40.7802 C   0  0  1  0  0  0  0  0  0  0  0  0
  -40.2145    8.3066  -41.5679 O   0  0  0  0  0  0  0  0  0  0  0  0
  -41.6337    9.9630  -40.5098 C   0  0  1  0  0  0  0  0  0  0  0  0
  -40.6380   10.6675  -39.6950 C   0  0  0  0  0  0  0  0  0  0  0  0
  -40.7562   10.1247  -38.2558 C   0  0  0  0  0  0  0  0  0  0  0  0
  -39.2024   10.5210  -40.0663 C   0  0  0  0  0  0  0  0  0  0  0  0
  -40.9520   12.1308  -39.6047 C   0  0  0  0  0  0  0  0  0  0  0  0
  -42.4294   12.2965  -39.8002 C   0  0  0  0  0  0  0  0  0  0  0  0
  -42.7356   12.0149  -41.2480 C   0  0  2  0  0  0  0  0  0  0  0  0
  -44.1044   12.1418  -41.3866 O   0  0  0  0  0  0  0  0  0  0  0  0
  -42.1973   10.6654  -41.7111 C   0  0  2  0  0  0  0  0  0  0  0  0
  -41.2029   10.9233  -42.7829 C   0  0  0  0  0  0  0  0  0  0  0  0
  1  2  2  0
  2  3  1  0
  3  4  1  6
  3  5  1  0
  5  6  1  0
  6  7  2  0
  6  8  1  0
  8  9  1  1
  8 10  1  0
 10 11  1  6
 10 12  1  0
 10 13  1  0
 13 14  1  6
 14 15  1  0
 15 16  1  0
 15 17  2  0
 13 18  1  0
 18 19  1  6
 18 20  1  0
 20 21  1  6
 21 22  1  0
 21 23  1  0
 21 24  1  0
 24 25  1  0
 25 26  1  0
 26 27  1  1
 26 28  1  0
 28 29  1  6
 12  3  1  0
 28 20  1  0
 28  8  1  0
M  END
$$$$
