
     RDKit          3D

 26 29  0  0  0  0  0  0  0  0999 V2000
  -22.4622   13.8518  -36.5898 C   0  0  0  0  0  0  0  0  0  0  0  0
  -21.7669   15.0213  -36.8858 O   0  0  0  0  0  0  0  0  0  0  0  0
  -20.9998   15.7191  -35.9611 C   0  0  0  0  0  0  0  0  0  0  0  0
  -20.0264   15.0367  -35.3103 C   0  0  0  0  0  0  0  0  0  0  0  0
  -19.2429   15.6871  -34.3836 C   0  0  0  0  0  0  0  0  0  0  0  0
  -19.4382   17.0430  -34.1105 C   0  0  0  0  0  0  0  0  0  0  0  0
  -20.4193   17.7338  -34.7667 C   0  0  0  0  0  0  0  0  0  0  0  0
  -21.2036   17.0507  -35.7004 C   0  0  0  0  0  0  0  0  0  0  0  0
  -22.2214   17.6845  -36.4052 O   0  0  0  0  0  0  0  0  0  0  0  0
  -22.9003   18.7891  -35.8929 C   0  0  0  0  0  0  0  0  0  0  0  0
  -18.4839   17.7867  -33.2915 C   0  0  0  0  0  0  0  0  0  0  0  0
  -18.7435   19.0619  -32.8733 C   0  0  0  0  0  0  0  0  0  0  0  0
  -19.8214   19.8022  -33.2462 O   0  0  0  0  0  0  0  0  0  0  0  0
  -19.7578   20.7753  -34.3038 C   0  0  0  0  0  0  0  0  0  0  0  0
  -17.8167   19.6212  -31.9729 C   0  0  0  0  0  0  0  0  0  0  0  0
  -18.0478   20.9107  -31.5363 O   0  0  0  0  0  0  0  0  0  0  0  0
  -17.4758   21.4055  -30.3513 C   0  0  0  0  0  0  0  0  0  0  0  0
  -16.7232   18.9570  -31.5233 C   0  0  0  0  0  0  0  0  0  0  0  0
  -16.4669   17.6562  -31.9507 C   0  0  0  0  0  0  0  0  0  0  0  0
  -17.3506   17.0951  -32.8299 C   0  0  0  0  0  0  0  0  0  0  0  0
  -17.0296   15.7603  -33.4209 C   0  0  0  0  0  0  0  0  0  0  0  0
  -18.2537   14.9508  -33.5729 C   0  0  0  0  0  0  0  0  0  0  0  0
  -16.0743   15.0342  -32.6051 N   0  0  0  0  0  0  0  0  0  0  0  0
  -15.7567   13.8065  -33.3007 C   0  0  0  0  0  0  0  0  0  0  0  0
  -14.8866   15.8520  -32.3844 C   0  0  0  0  0  0  0  0  0  0  0  0
  -15.2822   16.9325  -31.4366 C   0  0  0  0  0  0  0  0  0  0  0  0
  1  2  1  0
  2  3  1  0
  3  4  2  0
  4  5  1  0
  5  6  2  0
  6  7  1  0
  7  8  2  0
  8  9  1  0
  9 10  1  0
  6 11  1  0
 11 12  2  0
 12 13  1  0
 13 14  1  0
 12 15  1  0
 15 16  1  0
 16 17  1  0
 15 18  2  0
 18 19  1  0
 19 20  2  0
 20 21  1  0
 21 22  1  0
 21 23  1  0
 23 24  1  0
 23 25  1  0
 25 26  1  0
  8  3  1  0
 20 11  1  0
 22  5  1  0
 26 19  1  0
M  END
$$$$
