
     RDKit          3D

 31 34  0  0  0  0  0  0  0  0999 V2000
  -27.7950   24.1344  -31.1563 C   0  0  0  0  0  0  0  0  0  0  0  0
  -28.3638   22.8086  -30.9403 N   0  0  0  0  0  0  0  0  0  0  0  0
  -28.5524   21.9037  -31.8767 N   0  0  0  0  0  0  0  0  0  0  0  0
  -29.0937   20.7897  -31.3883 C   0  0  0  0  0  0  0  0  0  0  0  0
  -29.2562   21.0176  -30.0369 C   0  0  0  0  0  0  0  0  0  0  0  0
  -28.7909   22.2853  -29.7916 C   0  0  0  0  0  0  0  0  0  0  0  0
  -28.7623   22.9031  -28.5234 N   0  0  0  0  0  0  0  0  0  0  0  0
  -28.7828   22.1399  -27.3362 C   0  0  0  0  0  0  0  0  0  0  0  0
  -28.7653   22.8035  -26.1570 N   0  0  0  0  0  0  0  0  0  0  0  0
  -28.7987   22.1538  -24.9845 C   0  0  0  0  0  0  0  0  0  0  0  0
  -28.8519   20.7706  -25.0213 C   0  0  0  0  0  0  0  0  0  0  0  0
  -28.8713   20.0634  -26.1962 C   0  0  0  0  0  0  0  0  0  0  0  0
  -28.9381   18.6159  -26.2297 C   0  0  0  0  0  0  0  0  0  0  0  0
  -29.5499   17.9742  -27.2862 C   0  0  0  0  0  0  0  0  0  0  0  0
  -29.6516   16.5876  -27.3531 C   0  0  0  0  0  0  0  0  0  0  0  0
  -29.1496   15.8160  -26.3776 N   0  0  0  0  0  0  0  0  0  0  0  0
  -29.2445   14.3709  -26.4265 C   0  0  2  0  0  0  0  0  0  0  0  0
  -29.2011   13.9670  -27.8609 C   0  0  0  0  0  0  0  0  0  0  0  0
  -29.1283   12.6025  -28.0873 O   0  0  0  0  0  0  0  0  0  0  0  0
  -30.4823   13.9743  -25.7056 C   0  0  0  0  0  0  0  0  0  0  0  0
  -31.6780   14.5257  -26.1108 C   0  0  0  0  0  0  0  0  0  0  0  0
  -32.8352   14.1708  -25.4550 C   0  0  0  0  0  0  0  0  0  0  0  0
  -32.8411   13.2718  -24.3942 C   0  0  0  0  0  0  0  0  0  0  0  0
  -34.3231   12.8331  -23.5678 Cl  0  0  0  0  0  0  0  0  0  0  0  0
  -31.6163   12.7487  -24.0297 C   0  0  0  0  0  0  0  0  0  0  0  0
  -31.5749   11.8624  -22.9915 F   0  0  0  0  0  0  0  0  0  0  0  0
  -30.4388   13.0778  -24.6590 C   0  0  0  0  0  0  0  0  0  0  0  0
  -28.5496   16.4097  -25.3402 C   0  0  0  0  0  0  0  0  0  0  0  0
  -28.0790   15.6912  -24.4247 O   0  0  0  0  0  0  0  0  0  0  0  0
  -28.4346   17.8017  -25.2483 C   0  0  0  0  0  0  0  0  0  0  0  0
  -28.8350   20.7918  -27.3328 N   0  0  0  0  0  0  0  0  0  0  0  0
  1  2  1  0
  2  3  1  0
  3  4  2  0
  4  5  1  0
  5  6  2  0
  6  7  1  0
  7  8  1  0
  8  9  2  0
  9 10  1  0
 10 11  2  0
 11 12  1  0
 12 13  1  0
 13 14  1  0
 14 15  2  0
 15 16  1  0
 16 17  1  0
 17 18  1  6
 18 19  1  0
 17 20  1  0
 20 21  2  0
 21 22  1  0
 22 23  2  0
 23 24  1  0
 23 25  1  0
 25 26  1  0
 25 27  2  0
 16 28  1  0
 28 29  2  0
 28 30  1  0
 12 31  2  0
  6  2  1  0
 31  8  1  0
 30 13  2  0
 27 20  1  0
M  END
$$$$
