
     RDKit          3D

 11 10  0  0  0  0  0  0  0  0999 V2000
  -17.9674   38.8142  -22.9638 C   0  0  0  0  0  0  0  0  0  0  0  0
  -17.4561   37.6865  -22.1386 C   0  0  0  0  0  0  0  0  0  0  0  0
  -17.0652   37.9681  -21.0106 O   0  0  0  0  0  0  0  0  0  0  0  0
  -17.4334   36.2998  -22.6832 C   0  0  0  0  0  0  0  0  0  0  0  0
  -18.2034   35.3622  -21.8237 C   0  0  0  0  0  0  0  0  0  0  0  0
  -17.6971   34.7172  -20.9111 O   0  0  0  0  0  0  0  0  0  0  0  0
  -19.6618   35.2298  -22.1208 C   0  0  0  0  0  0  0  0  0  0  0  0
  -20.2051   33.8996  -21.7076 C   0  0  0  0  0  0  0  0  0  0  0  0
  -19.8162   32.7985  -22.6039 C   0  0  0  0  0  0  0  0  0  0  0  0
  -19.8596   32.9653  -23.8666 O   0  0  0  0  0  0  0  0  0  0  0  0
  -19.3984   31.5711  -22.1479 O   0  0  0  0  0  0  0  0  0  0  0  0
  1  2  1  0
  2  3  2  0
  2  4  1  0
  4  5  1  0
  5  6  2  0
  5  7  1  0
  7  8  1  0
  8  9  1  0
  9 10  2  0
  9 11  1  0
M  END
$$$$
