
     RDKit          3D

 37 39  0  0  0  0  0  0  0  0999 V2000
  -21.7007   30.6420  -18.5644 N   0  0  0  0  0  0  0  0  0  0  0  0
  -22.1920   31.3104  -19.7261 C   0  0  0  0  0  0  0  0  0  0  0  0
  -23.3973   31.2171  -19.9975 O   0  0  0  0  0  0  0  0  0  0  0  0
  -21.3252   32.0919  -20.5942 C   0  0  0  0  0  0  0  0  0  0  0  0
  -21.8270   32.7183  -21.6977 C   0  0  0  0  0  0  0  0  0  0  0  0
  -20.9639   33.4599  -22.5072 C   0  0  0  0  0  0  0  0  0  0  0  0
  -19.6616   33.5692  -22.2258 N   0  0  0  0  0  4  0  0  0  0  0  0
  -18.8093   34.3541  -23.1025 C   0  0  0  0  0  0  0  0  0  0  0  0
  -18.7364   35.7625  -22.6908 C   0  0  0  0  0  0  0  0  0  0  0  0
  -17.6472   36.3417  -22.3270 C   0  0  0  0  0  0  0  0  0  0  0  0
  -16.3506   35.7087  -22.2650 C   0  0  0  0  0  0  0  0  0  0  0  0
  -15.2953   36.3475  -21.9080 O   0  0  0  0  0  0  0  0  0  0  0  0
  -16.1467   34.3907  -22.5765 O   0  0  0  0  0  1  0  0  0  0  0  0
  -17.6191   37.7389  -21.9307 N   0  0  0  0  0  0  0  0  0  0  0  0
  -16.9669   38.9674  -21.8743 C   0  0  0  0  0  0  0  0  0  0  0  0
  -15.8003   39.3866  -22.0964 O   0  0  0  0  0  0  0  0  0  0  0  0
  -18.1874   39.7227  -21.4251 C   0  0  1  0  0  0  0  0  0  0  0  0
  -18.7069   40.4476  -22.5830 N   0  0  0  0  0  0  0  0  0  0  0  0
  -18.9989   41.8192  -22.5606 C   0  0  0  0  0  0  0  0  0  0  0  0
  -18.7950   42.4392  -21.4681 O   0  0  0  0  0  0  0  0  0  0  0  0
  -19.5298   42.6029  -23.7183 C   0  0  1  0  0  0  0  0  0  0  0  0
  -19.7850   44.0020  -23.3528 C   0  0  0  0  0  0  0  0  0  0  0  0
  -18.8053   44.7837  -22.7936 C   0  0  0  0  0  0  0  0  0  0  0  0
  -19.0995   46.0945  -22.4688 C   0  0  0  0  0  0  0  0  0  0  0  0
  -20.3456   46.6288  -22.6927 C   0  0  0  0  0  0  0  0  0  0  0  0
  -21.3390   45.8626  -23.2513 C   0  0  0  0  0  0  0  0  0  0  0  0
  -21.0229   44.5493  -23.5699 C   0  0  0  0  0  0  0  0  0  0  0  0
  -18.2580   42.5138  -24.9901 S   0  0  0  0  0  6  0  0  0  0  0  0
  -18.0332   41.0597  -25.2699 O   0  0  0  0  0  0  0  0  0  0  0  0
  -18.7244   43.2059  -26.2378 O   0  0  0  0  0  0  0  0  0  0  0  0
  -16.8332   43.1675  -24.4116 O   0  0  0  0  0  1  0  0  0  0  0  0
  -18.7356   38.3461  -21.2411 C   0  0  1  0  0  0  0  0  0  0  0  0
  -20.1730   38.1195  -22.3614 S   0  0  0  0  0  0  0  0  0  0  0  0
  -20.1039   36.4030  -22.7718 C   0  0  0  0  0  0  0  0  0  0  0  0
  -19.1811   32.9486  -21.1382 C   0  0  0  0  0  0  0  0  0  0  0  0
  -19.9785   32.2002  -20.2961 C   0  0  0  0  0  0  0  0  0  0  0  0
  -19.4651   38.2187  -22.2730 Na  0  0  0  0  0 15  0  0  0  0  0  0
  1  2  1  0
  2  3  2  0
  2  4  1  0
  4  5  2  0
  5  6  1  0
  6  7  2  0
  7  8  1  0
  8  9  1  0
  9 10  2  0
 10 11  1  0
 11 12  2  0
 11 13  1  0
 10 14  1  0
 14 15  1  0
 15 16  2  0
 15 17  1  0
 17 18  1  6
 18 19  1  0
 19 20  2  0
 21 19  1  1
 21 22  1  0
 22 23  2  0
 23 24  1  0
 24 25  2  0
 25 26  1  0
 26 27  2  0
 21 28  1  0
 28 29  2  0
 28 30  2  0
 28 31  1  0
 17 32  1  0
 32 33  1  6
 33 34  1  0
  7 35  1  0
 35 36  2  0
 36  4  1  0
 34  9  1  0
 32 14  1  0
 27 22  1  0
M  CHG  4   7   1  13  -1  31  -1  37   1
M  END
$$$$
