
     RDKit          3D

 38 43  0  0  0  0  0  0  0  0999 V2000
  -15.8771   18.0128  -39.7909 O   0  0  0  0  0  0  0  0  0  0  0  0
  -14.8583   17.8705  -39.0700 C   0  0  0  0  0  0  0  0  0  0  0  0
  -13.6582   17.6427  -39.7267 O   0  0  0  0  0  0  0  0  0  0  0  0
  -13.4438   18.0418  -41.0469 C   0  0  0  0  0  0  0  0  0  0  0  0
  -12.8228   19.2743  -41.2034 C   0  0  0  0  0  0  0  0  0  0  0  0
  -12.5700   19.7514  -42.4656 C   0  0  0  0  0  0  0  0  0  0  0  0
  -12.9233   19.0259  -43.5722 C   0  0  0  0  0  0  0  0  0  0  0  0
  -12.6477   19.5482  -44.8584 N   0  0  0  0  0  4  0  0  0  0  0  0
  -11.6857   20.3082  -45.0449 O   0  0  0  0  0  0  0  0  0  0  0  0
  -13.4544   19.2095  -45.9097 O   0  0  0  0  0  1  0  0  0  0  0  0
  -13.5380   17.8068  -43.3824 C   0  0  0  0  0  0  0  0  0  0  0  0
  -13.8127   17.2856  -42.1376 C   0  0  0  0  0  0  0  0  0  0  0  0
  -14.9779   17.9468  -37.6667 N   0  0  0  0  0  0  0  0  0  0  0  0
  -14.5738   16.8325  -36.8449 C   0  0  0  0  0  0  0  0  0  0  0  0
  -14.2661   17.2230  -35.4305 C   0  0  0  0  0  0  0  0  0  0  0  0
  -15.2743   18.1415  -34.8154 C   0  0  0  0  0  0  0  0  0  0  0  0
  -16.1230   17.4585  -33.7539 C   0  0  0  0  0  0  0  0  0  0  0  0
  -17.3481   17.1933  -34.4038 O   0  0  0  0  0  0  0  0  0  0  0  0
  -15.5061   16.1883  -33.3088 C   0  0  0  0  0  0  0  0  0  0  0  0
  -16.1414   14.9953  -33.6483 C   0  0  0  0  0  0  0  0  0  0  0  0
  -15.5819   13.8063  -33.2393 C   0  0  0  0  0  0  0  0  0  0  0  0
  -14.4288   13.7071  -32.5117 C   0  0  0  0  0  0  0  0  0  0  0  0
  -13.8011   14.8884  -32.1761 C   0  0  0  0  0  0  0  0  0  0  0  0
  -14.3471   16.1095  -32.5782 C   0  0  0  0  0  0  0  0  0  0  0  0
  -12.6719   14.5414  -31.4513 O   0  0  0  0  0  0  0  0  0  0  0  0
  -12.8776   13.2251  -30.9328 C   0  0  0  0  0  0  0  0  0  0  0  0
  -13.6615   12.6580  -31.9793 O   0  0  0  0  0  0  0  0  0  0  0  0
  -16.3827   18.3492  -32.6097 C   0  0  0  0  0  0  0  0  0  0  0  0
  -17.6433   18.4346  -32.0594 C   0  0  0  0  0  0  0  0  0  0  0  0
  -17.9395   19.2421  -30.9988 C   0  0  0  0  0  0  0  0  0  0  0  0
  -16.9493   20.0274  -30.4229 C   0  0  0  0  0  0  0  0  0  0  0  0
  -15.6828   19.9622  -30.9513 C   0  0  0  0  0  0  0  0  0  0  0  0
  -15.4062   19.1304  -32.0336 C   0  0  0  0  0  0  0  0  0  0  0  0
  -14.8767   20.8284  -30.2141 O   0  0  0  0  0  0  0  0  0  0  0  0
  -15.7492   21.6540  -29.4581 C   0  0  0  0  0  0  0  0  0  0  0  0
  -16.9604   20.9236  -29.3590 O   0  0  0  0  0  0  0  0  0  0  0  0
  -16.2449   18.7147  -35.8197 C   0  0  0  0  0  0  0  0  0  0  0  0
  -15.5040   19.1480  -37.0570 C   0  0  0  0  0  0  0  0  0  0  0  0
  1  2  2  0
  2  3  1  0
  3  4  1  0
  4  5  2  0
  5  6  1  0
  6  7  2  0
  7  8  1  0
  8  9  2  0
  8 10  1  0
  7 11  1  0
 11 12  2  0
  2 13  1  0
 13 14  1  0
 14 15  1  0
 15 16  1  0
 16 17  1  0
 17 18  1  0
 17 19  1  0
 19 20  2  0
 20 21  1  0
 21 22  2  0
 22 23  1  0
 23 24  2  0
 23 25  1  0
 25 26  1  0
 26 27  1  0
 17 28  1  0
 28 29  2  0
 29 30  1  0
 30 31  2  0
 31 32  1  0
 32 33  2  0
 32 34  1  0
 34 35  1  0
 35 36  1  0
 16 37  1  0
 37 38  1  0
 12  4  1  0
 38 13  1  0
 24 19  1  0
 33 28  1  0
 27 22  1  0
 36 31  1  0
M  CHG  2   8   1  10  -1
M  END
$$$$
