
     RDKit          3D

 23 25  0  0  0  0  0  0  0  0999 V2000
  -15.7720   45.6470  -22.2473 C   0  0  0  0  0  0  0  0  0  0  0  0
  -16.5733   44.3989  -22.4584 C   0  0  0  0  0  0  0  0  0  0  0  0
  -16.0520   43.2661  -21.8322 O   0  0  0  0  0  0  0  0  0  0  0  0
  -16.5716   41.9867  -21.8883 C   0  0  0  0  0  0  0  0  0  0  0  0
  -15.8188   40.9472  -22.3761 C   0  0  0  0  0  0  0  0  0  0  0  0
  -16.3795   39.6863  -22.4134 C   0  0  0  0  0  0  0  0  0  0  0  0
  -17.6601   39.3957  -21.9891 C   0  0  0  0  0  0  0  0  0  0  0  0
  -18.2644   37.7934  -22.1170 S   0  0  0  0  0  6  0  0  0  0  0  0
  -17.1403   36.8116  -21.8084 O   0  0  0  0  0  0  0  0  0  0  0  0
  -19.2379   37.6004  -20.9520 O   0  0  0  0  0  0  0  0  0  0  0  0
  -19.0372   37.3667  -23.5103 N   0  0  0  0  0  0  0  0  0  0  0  0
  -18.7025   36.2254  -24.2311 C   0  0  0  0  0  0  0  0  0  0  0  0
  -18.2270   36.4639  -25.6524 C   0  0  0  0  0  0  0  0  0  0  0  0
  -19.4107   36.3778  -26.5702 C   0  0  0  0  0  0  0  0  0  0  0  0
  -20.4573   37.4013  -26.3323 C   0  0  0  0  0  0  0  0  0  0  0  0
  -20.0269   38.5277  -25.4333 C   0  0  0  0  0  0  0  0  0  0  0  0
  -20.1180   38.1592  -23.9738 C   0  0  0  0  0  0  0  0  0  0  0  0
  -18.4007   40.4468  -21.5025 C   0  0  0  0  0  0  0  0  0  0  0  0
  -19.6955   40.2717  -21.0389 C   0  0  0  0  0  0  0  0  0  0  0  0
  -20.4614   41.3014  -20.5392 C   0  0  0  0  0  0  0  0  0  0  0  0
  -19.8954   42.5609  -20.5058 C   0  0  0  0  0  0  0  0  0  0  0  0
  -18.6111   42.7807  -20.9554 C   0  0  0  0  0  0  0  0  0  0  0  0
  -17.8520   41.7301  -21.4565 C   0  0  0  0  0  0  0  0  0  0  0  0
  1  2  1  0
  2  3  1  0
  3  4  1  0
  4  5  2  0
  5  6  1  0
  6  7  2  0
  7  8  1  0
  8  9  2  0
  8 10  2  0
  8 11  1  0
 11 12  1  0
 12 13  1  0
 13 14  1  0
 14 15  1  0
 15 16  1  0
 16 17  1  0
  7 18  1  0
 18 19  2  0
 19 20  1  0
 20 21  2  0
 21 22  1  0
 22 23  2  0
 23  4  1  0
 17 11  1  0
 23 18  1  0
M  END
$$$$
