
     RDKit          3D

 34 37  0  0  0  0  0  0  0  0999 V2000
  -21.0597   21.6989  -34.7394 C   0  0  0  0  0  0  0  0  0  0  0  0
  -21.4128   22.6315  -35.4101 C   0  0  0  0  0  0  0  0  0  0  0  0
  -21.8495   23.7934  -36.2264 C   0  0  0  0  0  0  0  0  0  0  0  0
  -22.7579   23.4548  -37.2663 N   0  0  0  0  0  0  0  0  0  0  0  0
  -24.1630   23.3236  -37.0142 C   0  0  0  0  0  0  0  0  0  0  0  0
  -24.9899   24.5247  -37.0615 C   0  0  0  0  0  0  0  0  0  0  0  0
  -24.6117   25.6727  -36.3610 C   0  0  0  0  0  0  0  0  0  0  0  0
  -25.4196   26.7544  -36.3753 C   0  0  0  0  0  0  0  0  0  0  0  0
  -25.0230   27.8852  -35.6745 C   0  0  0  0  0  0  0  0  0  0  0  0
  -23.9241   27.8638  -35.0468 O   0  0  0  0  0  0  0  0  0  0  0  0
  -25.8240   28.9595  -35.6912 N   0  0  0  0  0  0  0  0  0  0  0  0
  -26.9908   29.0158  -36.3436 C   0  0  0  0  0  0  0  0  0  0  0  0
  -27.8640   30.2352  -36.3446 C   0  0  0  0  0  0  0  0  0  0  0  0
  -27.3518   27.9075  -37.0144 N   0  0  0  0  0  0  0  0  0  0  0  0
  -26.6217   26.7897  -37.0569 C   0  0  0  0  0  0  0  0  0  0  0  0
  -26.9984   25.6697  -37.7461 C   0  0  0  0  0  0  0  0  0  0  0  0
  -26.1729   24.5381  -37.7438 C   0  0  0  0  0  0  0  0  0  0  0  0
  -26.7827   23.0751  -38.8400 Br  0  0  0  0  0  0  0  0  0  0  0  0
  -22.2820   23.2456  -38.6210 C   0  0  0  0  0  0  0  0  0  0  0  0
  -21.7161   24.2554  -39.3640 C   0  0  0  0  0  0  0  0  0  0  0  0
  -21.2656   24.0683  -40.6764 C   0  0  0  0  0  0  0  0  0  0  0  0
  -21.3655   22.8493  -41.2997 C   0  0  0  0  0  0  0  0  0  0  0  0
  -20.8956   22.6621  -42.6831 C   0  0  0  0  0  0  0  0  0  0  0  0
  -21.0685   23.6002  -43.4849 O   0  0  0  0  0  0  0  0  0  0  0  0
  -20.2671   21.4814  -43.1307 N   0  0  0  0  0  0  0  0  0  0  0  0
  -19.0691   21.4539  -43.9003 C   0  0  0  0  0  0  0  0  0  0  0  0
  -19.2972   21.4465  -45.3534 C   0  0  0  0  0  0  0  0  0  0  0  0
  -20.3977   22.1217  -45.8774 C   0  0  0  0  0  0  0  0  0  0  0  0
  -20.5722   22.1064  -47.2448 C   0  0  0  0  0  0  0  0  0  0  0  0
  -19.7262   21.4656  -48.1168 C   0  0  0  0  0  0  0  0  0  0  0  0
  -18.6711   20.8205  -47.5913 N   0  0  0  0  0  0  0  0  0  0  0  0
  -18.4785   20.8208  -46.2588 C   0  0  0  0  0  0  0  0  0  0  0  0
  -21.9259   21.8362  -40.5710 C   0  0  0  0  0  0  0  0  0  0  0  0
  -22.3779   22.0251  -39.2539 C   0  0  0  0  0  0  0  0  0  0  0  0
  1  2  3  0
  2  3  1  0
  3  4  1  0
  4  5  1  0
  5  6  1  0
  6  7  2  0
  7  8  1  0
  8  9  1  0
  9 10  2  0
  9 11  1  0
 11 12  1  0
 12 13  1  0
 12 14  2  0
 14 15  1  0
 15 16  1  0
 16 17  2  0
 17 18  1  0
  4 19  1  0
 19 20  2  0
 20 21  1  0
 21 22  2  0
 22 23  1  0
 23 24  2  0
 23 25  1  0
 25 26  1  0
 26 27  1  0
 27 28  2  0
 28 29  1  0
 29 30  2  0
 30 31  1  0
 31 32  2  0
 22 33  1  0
 33 34  2  0
 17  6  1  0
 34 19  1  0
 15  8  2  0
 32 27  1  0
M  END
$$$$
