
     RDKit          3D

 12 12  0  0  0  0  0  0  0  0999 V2000
  -20.4843   33.0765  -22.9027 N   0  0  0  0  0  0  0  0  0  0  0  0
  -19.6963   34.2545  -22.7775 C   0  0  0  0  0  0  0  0  0  0  0  0
  -20.2071   35.5153  -23.0195 C   0  0  0  0  0  0  0  0  0  0  0  0
  -19.4292   36.6506  -22.8937 C   0  0  0  0  0  0  0  0  0  0  0  0
  -18.1025   36.5931  -22.5208 C   0  0  0  0  0  0  0  0  0  0  0  0
  -17.1658   38.0588  -22.3771 S   0  0  0  0  0  6  0  0  0  0  0  0
  -17.5164   38.7224  -20.8003 N   0  0  0  0  0  0  0  0  0  0  0  0
  -15.6958   37.7275  -22.3677 O   0  0  0  0  0  0  0  0  0  0  0  0
  -17.4828   39.0249  -23.4580 O   0  0  0  0  0  0  0  0  0  0  0  0
  -17.5884   35.3396  -22.2784 C   0  0  0  0  0  0  0  0  0  0  0  0
  -18.3620   34.2037  -22.4030 C   0  0  0  0  0  0  0  0  0  0  0  0
  -17.6933   32.6146  -22.0910 Cl  0  0  0  0  0  0  0  0  0  0  0  0
  1  2  1  0
  2  3  2  0
  3  4  1  0
  4  5  2  0
  5  6  1  0
  6  7  1  0
  6  8  2  0
  6  9  2  0
  5 10  1  0
 10 11  2  0
 11 12  1  0
 11  2  1  0
M  END
$$$$
