
     RDKit          3D

 16 19  0  0  0  0  0  0  0  0999 V2000
    4.5624   19.4364  -17.3486 C   0  0  0  0  0  0  0  0  0  0  0  0
    3.4408   19.1907  -16.5854 C   0  0  0  0  0  0  0  0  0  0  0  0
    2.2610   18.7186  -17.1082 C   0  0  0  0  0  0  0  0  0  0  0  0
    1.1435   18.4788  -16.3175 C   0  0  0  0  0  0  0  0  0  0  0  0
   -0.0343   18.0054  -16.8524 C   0  0  0  0  0  0  0  0  0  0  0  0
   -0.1361   17.7521  -18.2155 C   0  0  0  0  0  0  0  0  0  0  0  0
   -1.2955   17.2802  -18.7789 C   0  0  0  0  0  0  0  0  0  0  0  0
   -1.3462   17.0471  -20.1210 C   0  0  0  0  0  0  0  0  0  0  0  0
   -0.2731   17.2675  -20.9422 C   0  0  0  0  0  0  0  0  0  0  0  0
    0.8889   17.7446  -20.3518 C   0  0  0  0  0  0  0  0  0  0  0  0
    2.0103   17.9882  -21.1273 C   0  0  0  0  0  0  0  0  0  0  0  0
    3.1851   18.4603  -20.5943 C   0  0  0  0  0  0  0  0  0  0  0  0
    3.2842   18.7106  -19.2442 C   0  0  0  0  0  0  0  0  0  0  0  0
    4.4774   19.1900  -18.7031 C   0  0  0  0  0  0  0  0  0  0  0  0
    2.1702   18.4700  -18.4654 C   0  0  0  0  0  0  0  0  0  0  0  0
    0.9687   17.9891  -18.9982 C   0  0  0  0  0  0  0  0  0  0  0  0
  1  2  2  0
  2  3  1  0
  3  4  2  0
  4  5  1  0
  5  6  2  0
  6  7  1  0
  7  8  2  0
  8  9  1  0
  9 10  2  0
 10 11  1  0
 11 12  2  0
 12 13  1  0
 13 14  2  0
 13 15  1  0
 15 16  2  0
 14  1  1  0
 15  3  1  0
 16  6  1  0
 16 10  1  0
M  END
$$$$
