
     RDKit          3D

 37 40  0  0  0  0  0  0  0  0999 V2000
  -18.0193   43.8157  -24.4125 C   0  0  0  0  0  0  0  0  0  0  0  0
  -18.4093   43.5171  -23.0885 O   0  0  0  0  0  0  0  0  0  0  0  0
  -18.4739   42.1835  -22.7090 C   0  0  0  0  0  0  0  0  0  0  0  0
  -19.0621   41.2497  -23.5425 C   0  0  0  0  0  0  0  0  0  0  0  0
  -19.1305   39.9006  -23.1659 C   0  0  0  0  0  0  0  0  0  0  0  0
  -19.7083   38.9477  -23.9670 C   0  0  0  0  0  0  0  0  0  0  0  0
  -20.2548   39.2897  -25.2159 N   0  0  0  0  0  0  0  0  0  0  0  0
  -21.5296   39.9836  -25.3501 C   0  0  0  0  0  0  0  0  0  0  0  0
  -21.5756   40.8898  -26.5280 C   0  0  0  0  0  0  0  0  0  0  0  0
  -22.9354   40.7952  -27.1779 C   0  0  0  0  0  0  0  0  0  0  0  0
  -23.1637   39.4672  -27.7223 N   0  0  0  0  0  0  0  0  0  0  0  0
  -24.4268   39.3529  -28.3822 C   0  0  0  0  0  0  0  0  0  0  0  0
  -22.9799   38.4495  -26.7160 C   0  0  0  0  0  0  0  0  0  0  0  0
  -22.6953   39.0591  -25.3495 C   0  0  0  0  0  0  0  0  0  0  0  0
  -19.7299   37.6679  -23.5176 N   0  0  0  0  0  0  0  0  0  0  0  0
  -19.2243   37.2628  -22.3399 C   0  0  0  0  0  0  0  0  0  0  0  0
  -19.3019   35.8806  -21.9614 N   0  0  0  0  0  0  0  0  0  0  0  0
  -20.3296   35.2461  -22.8134 C   0  0  0  0  0  0  0  0  0  0  0  0
  -19.7527   33.8709  -23.3430 C   0  0  0  0  0  0  0  0  0  0  0  0
  -18.5506   33.7350  -22.6277 C   0  0  0  0  0  0  0  0  0  0  0  0
  -17.4009   33.4806  -21.9984 N   0  0  0  0  0  0  0  0  0  0  0  0
  -16.2025   33.1797  -22.7274 C   0  0  0  0  0  0  0  0  0  0  0  0
  -17.1806   34.6803  -21.1103 C   0  0  0  0  0  0  0  0  0  0  0  0
  -18.4315   35.4978  -20.9323 C   0  0  0  0  0  0  0  0  0  0  0  0
  -18.6702   38.2237  -21.5912 N   0  0  0  0  0  0  0  0  0  0  0  0
  -18.6063   39.5021  -21.9540 C   0  0  0  0  0  0  0  0  0  0  0  0
  -18.0285   40.4543  -21.1489 C   0  0  0  0  0  0  0  0  0  0  0  0
  -17.9543   41.7835  -21.5054 C   0  0  0  0  0  0  0  0  0  0  0  0
  -17.3760   42.7527  -20.7043 O   0  0  0  0  0  0  0  0  0  0  0  0
  -16.3092   42.3657  -19.8486 C   0  0  0  0  0  0  0  0  0  0  0  0
  -15.3103   43.5592  -19.9027 C   0  0  0  0  0  0  0  0  0  0  0  0
  -14.3573   43.4555  -19.1175 O   0  0  0  0  0  0  0  0  0  0  0  0
  -13.4225   43.3680  -18.2975 C   0  0  0  0  0  0  0  0  0  0  0  0
  -13.6929   42.4975  -17.0441 C   0  0  0  0  0  0  0  0  0  0  0  0
  -12.5995   42.5110  -16.1311 N   0  0  0  0  0  0  0  0  0  0  0  0
  -11.4266   43.2016  -16.5658 C   0  0  0  0  0  0  0  0  0  0  0  0
  -12.9992   42.7788  -14.7840 C   0  0  0  0  0  0  0  0  0  0  0  0
  1  2  1  0
  2  3  1  0
  3  4  2  0
  4  5  1  0
  5  6  2  0
  6  7  1  0
  7  8  1  0
  8  9  1  0
  9 10  1  0
 10 11  1  0
 11 12  1  0
 11 13  1  0
 13 14  1  0
  6 15  1  0
 15 16  2  0
 16 17  1  0
 17 18  1  0
 18 19  1  0
 19 20  1  0
 20 21  1  0
 21 22  1  0
 21 23  1  0
 23 24  1  0
 16 25  1  0
 25 26  2  0
 26 27  1  0
 27 28  2  0
 28 29  1  0
 29 30  1  0
 30 31  1  0
 31 32  1  0
 32 33  1  0
 33 34  1  0
 34 35  1  0
 35 36  1  0
 35 37  1  0
 28  3  1  0
 26  5  1  0
 14  8  1  0
 24 17  1  0
M  END
$$$$
