
     RDKit          3D

 41 45  0  0  0  0  0  0  0  0999 V2000
  -23.1004   23.6049  -34.6845 C   0  0  0  0  0  0  0  0  0  0  0  0
  -21.9780   22.7273  -34.1735 C   0  0  0  0  0  0  0  0  0  0  0  0
  -22.4330   21.9039  -33.1357 O   0  0  0  0  0  0  0  0  0  0  0  0
  -21.5377   21.0316  -32.5290 C   0  0  0  0  0  0  0  0  0  0  0  0
  -20.2269   20.8016  -32.8782 C   0  0  0  0  0  0  0  0  0  0  0  0
  -19.7657   19.8887  -32.0180 N   0  0  0  0  0  0  0  0  0  0  0  0
  -18.4221   19.3963  -32.0726 C   0  0  0  0  0  0  0  0  0  0  0  0
  -17.3851   20.2462  -31.7547 C   0  0  0  0  0  0  0  0  0  0  0  0
  -16.0744   19.8213  -31.7918 C   0  0  0  0  0  0  0  0  0  0  0  0
  -15.7536   18.5271  -32.1494 C   0  0  0  0  0  0  0  0  0  0  0  0
  -14.4865   18.0773  -32.1966 F   0  0  0  0  0  0  0  0  0  0  0  0
  -16.8119   17.6828  -32.4670 C   0  0  0  0  0  0  0  0  0  0  0  0
  -18.1264   18.1031  -32.4316 C   0  0  0  0  0  0  0  0  0  0  0  0
  -19.2490   17.1802  -32.7766 C   0  0  0  0  0  0  0  0  0  0  0  0
  -20.7106   19.5465  -31.1659 N   0  0  0  0  0  0  0  0  0  0  0  0
  -21.8175   20.2345  -31.4546 C   0  0  0  0  0  0  0  0  0  0  0  0
  -23.1254   20.1695  -30.7582 C   0  0  0  0  0  0  0  0  0  0  0  0
  -24.1421   20.5226  -31.3906 O   0  0  0  0  0  0  0  0  0  0  0  0
  -23.2156   19.7269  -29.4365 N   0  0  0  0  0  0  0  0  0  0  0  0
  -24.4090   19.4036  -28.7459 C   0  0  0  0  0  0  0  0  0  0  0  0
  -25.0462   18.1952  -28.8017 C   0  0  0  0  0  0  0  0  0  0  0  0
  -26.2208   18.0045  -28.0694 C   0  0  0  0  0  0  0  0  0  0  0  0
  -26.7912   18.9684  -27.2806 C   0  0  0  0  0  0  0  0  0  0  0  0
  -27.9590   18.7446  -26.5679 O   0  0  0  0  0  0  0  0  0  0  0  0
  -29.1948   18.7118  -27.1891 C   0  0  0  0  0  0  0  0  0  0  0  0
  -29.5256   19.5140  -28.2611 C   0  0  0  0  0  0  0  0  0  0  0  0
  -30.7759   19.4397  -28.8465 C   0  0  0  0  0  0  0  0  0  0  0  0
  -31.6475   18.5577  -28.3275 N   0  0  0  0  0  0  0  0  0  0  0  0
  -31.3547   17.7576  -27.2775 C   0  0  0  0  0  0  0  0  0  0  0  0
  -32.2713   16.8596  -26.7645 C   0  0  0  0  0  0  0  0  0  0  0  0
  -32.0083   16.0284  -25.6957 C   0  0  0  0  0  0  0  0  0  0  0  0
  -32.9694   15.1264  -25.2020 O   0  0  0  0  0  0  0  0  0  0  0  0
  -34.3295   15.4669  -25.3896 C   0  0  0  0  0  0  0  0  0  0  0  0
  -30.7546   16.0847  -25.0889 C   0  0  0  0  0  0  0  0  0  0  0  0
  -30.4828   15.2515  -24.0132 O   0  0  0  0  0  0  0  0  0  0  0  0
  -29.2259   14.5804  -24.0054 C   0  0  0  0  0  0  0  0  0  0  0  0
  -29.8309   16.9832  -25.5987 C   0  0  0  0  0  0  0  0  0  0  0  0
  -30.1195   17.8032  -26.6686 C   0  0  0  0  0  0  0  0  0  0  0  0
  -26.1476   20.1948  -27.2223 C   0  0  0  0  0  0  0  0  0  0  0  0
  -26.6988   21.1849  -26.4527 F   0  0  0  0  0  0  0  0  0  0  0  0
  -24.9944   20.3995  -27.9338 C   0  0  0  0  0  0  0  0  0  0  0  0
  1  2  1  0
  2  3  1  0
  3  4  1  0
  4  5  2  0
  5  6  1  0
  6  7  1  0
  7  8  2  0
  8  9  1  0
  9 10  2  0
 10 11  1  0
 10 12  1  0
 12 13  2  0
 13 14  1  0
  6 15  1  0
 15 16  2  0
 16 17  1  0
 17 18  2  0
 17 19  1  0
 19 20  1  0
 20 21  2  0
 21 22  1  0
 22 23  2  0
 23 24  1  0
 24 25  1  0
 25 26  2  0
 26 27  1  0
 27 28  2  0
 28 29  1  0
 29 30  2  0
 30 31  1  0
 31 32  1  0
 32 33  1  0
 31 34  2  0
 34 35  1  0
 35 36  1  0
 34 37  1  0
 37 38  2  0
 23 39  1  0
 39 40  1  0
 39 41  2  0
 16  4  1  0
 41 20  1  0
 13  7  1  0
 38 25  1  0
 38 29  1  0
M  END
$$$$
