
     RDKit          3D

 31 35  0  0  0  0  0  0  0  0999 V2000
    7.1233   12.5839  -36.9275 O   0  0  0  0  0  0  0  0  0  0  0  0
    6.7278   12.0229  -35.8800 C   0  0  0  0  0  0  0  0  0  0  0  0
    6.7953   12.6211  -34.5814 N   0  0  0  0  0  0  0  0  0  0  0  0
    6.3828   11.6012  -33.6427 C   0  0  0  0  0  0  0  0  0  0  0  0
    5.4440   10.7632  -34.4822 C   0  0  0  0  0  0  0  0  0  0  0  0
    6.1421   10.7120  -35.7403 N   0  0  0  0  0  0  0  0  0  0  0  0
    6.2856    9.6713  -36.7062 C   0  0  0  0  0  0  0  0  0  0  0  0
    5.4721    9.8206  -37.9481 C   0  0  0  0  0  0  0  0  0  0  0  0
    4.0438    9.9217  -37.7219 N   0  0  0  0  0  0  0  0  0  0  0  0
    3.4011    9.9688  -39.0151 C   0  0  0  0  0  0  0  0  0  0  0  0
    1.9023    9.8134  -38.9387 C   0  0  0  0  0  0  0  0  0  0  0  0
    1.4938    8.7280  -37.9891 C   0  0  0  0  0  0  0  0  0  0  0  0
    0.3000    7.9801  -38.3676 C   0  0  0  0  0  0  0  0  0  0  0  0
   -0.0969    7.4522  -39.5831 C   0  0  0  0  0  0  0  0  0  0  0  0
   -1.2865    6.8411  -39.4620 N   0  0  0  0  0  0  0  0  0  0  0  0
   -2.0380    6.1762  -40.4649 C   0  0  0  0  0  0  0  0  0  0  0  0
   -3.3729    6.5037  -40.6096 C   0  0  0  0  0  0  0  0  0  0  0  0
   -4.1027    5.8481  -41.5830 C   0  0  0  0  0  0  0  0  0  0  0  0
   -3.5541    4.8960  -42.4001 C   0  0  0  0  0  0  0  0  0  0  0  0
   -4.2918    4.2549  -43.3591 F   0  0  0  0  0  0  0  0  0  0  0  0
   -2.2196    4.6075  -42.2145 C   0  0  0  0  0  0  0  0  0  0  0  0
   -1.4312    5.2219  -41.2631 C   0  0  0  0  0  0  0  0  0  0  0  0
   -1.6758    6.9616  -38.1804 C   0  0  0  0  0  0  0  0  0  0  0  0
   -2.8029    6.5230  -37.5105 C   0  0  0  0  0  0  0  0  0  0  0  0
   -2.9918    6.7687  -36.1522 C   0  0  0  0  0  0  0  0  0  0  0  0
   -2.0377    7.4666  -35.4430 C   0  0  0  0  0  0  0  0  0  0  0  0
   -2.2257    7.8002  -33.7309 Cl  0  0  0  0  0  0  0  0  0  0  0  0
   -0.9172    7.8975  -36.1293 C   0  0  0  0  0  0  0  0  0  0  0  0
   -0.7210    7.6593  -37.4739 C   0  0  0  0  0  0  0  0  0  0  0  0
    2.7232    7.8545  -37.7504 C   0  0  0  0  0  0  0  0  0  0  0  0
    3.6804    8.7350  -36.9702 C   0  0  0  0  0  0  0  0  0  0  0  0
  1  2  2  0
  2  3  1  0
  3  4  1  0
  4  5  1  0
  5  6  1  0
  6  7  1  0
  7  8  1  0
  8  9  1  0
  9 10  1  0
 10 11  1  0
 11 12  1  0
 12 13  1  0
 13 14  2  0
 14 15  1  0
 15 16  1  0
 16 17  2  0
 17 18  1  0
 18 19  2  0
 19 20  1  0
 19 21  1  0
 21 22  2  0
 15 23  1  0
 23 24  2  0
 24 25  1  0
 25 26  2  0
 26 27  1  0
 26 28  1  0
 28 29  2  0
 12 30  1  0
 30 31  1  0
  6  2  1  0
 31  9  1  0
 29 13  1  0
 22 16  1  0
 29 23  1  0
M  END
$$$$
