
     RDKit          3D

 42 46  0  0  0  0  0  0  0  0999 V2000
  -23.5783   18.7481  -35.7243 C   0  0  0  0  0  0  0  0  0  0  0  0
  -23.2691   19.3709  -36.9590 O   0  0  0  0  0  0  0  0  0  0  0  0
  -21.9877   19.2001  -37.4978 C   0  0  0  0  0  0  0  0  0  0  0  0
  -21.1184   20.2732  -37.5302 C   0  0  0  0  0  0  0  0  0  0  0  0
  -19.8490   20.1618  -38.0478 C   0  0  0  0  0  0  0  0  0  0  0  0
  -19.3947   18.9429  -38.5633 C   0  0  0  0  0  0  0  0  0  0  0  0
  -18.0833   18.8818  -39.0860 N   0  0  0  0  0  0  0  0  0  0  0  0
  -17.8504   19.3000  -40.4158 C   0  0  0  0  0  0  0  0  0  0  0  0
  -18.7832   19.3764  -41.2565 O   0  0  0  0  0  0  0  0  0  0  0  0
  -16.5593   19.6444  -40.8392 O   0  0  0  0  0  0  0  0  0  0  0  0
  -16.2964   20.3494  -41.9852 C   0  0  0  0  0  0  0  0  0  0  0  0
  -16.0913   19.6810  -43.1674 C   0  0  0  0  0  0  0  0  0  0  0  0
  -16.1601   18.2034  -43.1685 C   0  0  0  0  0  0  0  0  0  0  0  0
  -15.8275   20.3892  -44.3173 C   0  0  0  0  0  0  0  0  0  0  0  0
  -15.7727   21.7764  -44.2637 C   0  0  0  0  0  0  0  0  0  0  0  0
  -15.9786   22.4241  -43.0829 C   0  0  0  0  0  0  0  0  0  0  0  0
  -16.2403   21.7051  -41.9449 C   0  0  0  0  0  0  0  0  0  0  0  0
  -16.4541   22.4648  -40.6791 C   0  0  0  0  0  0  0  0  0  0  0  0
  -17.0190   18.4064  -38.2881 C   0  0  0  0  0  0  0  0  0  0  0  0
  -17.1554   18.3983  -36.8946 C   0  0  0  0  0  0  0  0  0  0  0  0
  -16.1340   17.9400  -36.1143 C   0  0  0  0  0  0  0  0  0  0  0  0
  -15.0224   17.5090  -36.7342 N   0  0  0  0  0  0  0  0  0  0  0  0
  -14.8364   17.4929  -38.0501 C   0  0  0  0  0  0  0  0  0  0  0  0
  -13.6577   17.0340  -38.6690 N   0  0  0  0  0  0  0  0  0  0  0  0
  -13.1468   17.4874  -39.9101 C   0  0  0  0  0  0  0  0  0  0  0  0
  -13.8249   17.5199  -41.0904 C   0  0  0  0  0  0  0  0  0  0  0  0
  -13.2172   17.9709  -42.2698 C   0  0  0  0  0  0  0  0  0  0  0  0
  -11.9111   18.4031  -42.3007 C   0  0  0  0  0  0  0  0  0  0  0  0
  -11.2965   18.8414  -43.5020 N   0  0  0  0  0  0  0  0  0  0  0  0
   -9.9801   19.4495  -43.5275 C   0  0  0  0  0  0  0  0  0  0  0  0
   -9.0374   18.5906  -44.3427 C   0  0  0  0  0  0  0  0  0  0  0  0
   -9.7230   17.6171  -45.1328 N   0  0  0  0  0  0  0  0  0  0  0  0
   -8.8170   17.2420  -46.2296 C   0  0  0  0  0  0  0  0  0  0  0  0
  -10.9415   18.0635  -45.7414 C   0  0  0  0  0  0  0  0  0  0  0  0
  -11.9261   18.7025  -44.8187 C   0  0  0  0  0  0  0  0  0  0  0  0
  -11.2280   18.3700  -41.1067 C   0  0  0  0  0  0  0  0  0  0  0  0
  -11.8139   17.9314  -39.9525 C   0  0  0  0  0  0  0  0  0  0  0  0
  -15.8671   17.9542  -38.8081 N   0  0  0  0  0  0  0  0  0  0  0  0
  -20.2722   17.8830  -38.5241 C   0  0  0  0  0  0  0  0  0  0  0  0
  -19.8654   16.6597  -39.0231 O   0  0  0  0  0  0  0  0  0  0  0  0
  -20.6417   15.4883  -38.8139 C   0  0  0  0  0  0  0  0  0  0  0  0
  -21.5508   17.9995  -38.0017 C   0  0  0  0  0  0  0  0  0  0  0  0
  1  2  1  0
  2  3  1  0
  3  4  2  0
  4  5  1  0
  5  6  2  0
  6  7  1  0
  7  8  1  0
  8  9  2  0
  8 10  1  0
 10 11  1  0
 11 12  2  0
 12 13  1  0
 12 14  1  0
 14 15  2  0
 15 16  1  0
 16 17  2  0
 17 18  1  0
  7 19  1  0
 19 20  2  0
 20 21  1  0
 21 22  2  0
 22 23  1  0
 23 24  1  0
 24 25  1  0
 25 26  2  0
 26 27  1  0
 27 28  2  0
 28 29  1  0
 29 30  1  0
 30 31  1  0
 31 32  1  0
 32 33  1  0
 32 34  1  0
 34 35  1  0
 28 36  1  0
 36 37  2  0
 23 38  2  0
  6 39  1  0
 39 40  1  0
 40 41  1  0
 39 42  2  0
 42  3  1  0
 17 11  1  0
 38 19  1  0
 37 25  1  0
 35 29  1  0
M  END
$$$$
