
     RDKit          3D

 21 22  0  0  0  0  0  0  0  0999 V2000
  -19.0546   18.2986  -32.1502 O   0  0  0  0  0  0  0  0  0  0  0  0
  -18.0833   17.4767  -32.2456 C   0  0  0  0  0  0  0  0  0  0  0  0
  -18.3594   16.1249  -32.5560 N   0  0  0  0  0  0  0  0  0  0  0  0
  -19.6410   15.7494  -33.0189 C   0  0  0  0  0  0  0  0  0  0  0  0
  -20.4131   16.5220  -33.8452 C   0  0  0  0  0  0  0  0  0  0  0  0
  -21.6630   16.0859  -34.2583 C   0  0  0  0  0  0  0  0  0  0  0  0
  -22.1783   14.8711  -33.8615 C   0  0  0  0  0  0  0  0  0  0  0  0
  -23.4588   14.4348  -34.2904 N   0  0  0  0  0  4  0  0  0  0  0  0
  -24.2324   15.1690  -34.9267 O   0  0  0  0  0  0  0  0  0  0  0  0
  -23.8760   13.1615  -34.0026 O   0  0  0  0  0  1  0  0  0  0  0  0
  -21.3914   14.1029  -33.0299 C   0  0  0  0  0  0  0  0  0  0  0  0
  -20.1425   14.5331  -32.6141 C   0  0  0  0  0  0  0  0  0  0  0  0
  -19.1930   13.5086  -31.5572 Cl  0  0  0  0  0  0  0  0  0  0  0  0
  -16.7278   17.9567  -32.0324 C   0  0  0  0  0  0  0  0  0  0  0  0
  -15.6653   17.5568  -32.8128 C   0  0  0  0  0  0  0  0  0  0  0  0
  -14.3660   18.0261  -32.5971 C   0  0  0  0  0  0  0  0  0  0  0  0
  -13.0388   17.4969  -33.6081 Cl  0  0  0  0  0  0  0  0  0  0  0  0
  -14.1762   18.9164  -31.5626 C   0  0  0  0  0  0  0  0  0  0  0  0
  -15.2370   19.3151  -30.7842 C   0  0  0  0  0  0  0  0  0  0  0  0
  -16.5163   18.8608  -30.9870 C   0  0  0  0  0  0  0  0  0  0  0  0
  -17.5674   19.2854  -30.1797 O   0  0  0  0  0  0  0  0  0  0  0  0
  1  2  2  0
  2  3  1  0
  3  4  1  0
  4  5  2  0
  5  6  1  0
  6  7  2  0
  7  8  1  0
  8  9  2  0
  8 10  1  0
  7 11  1  0
 11 12  2  0
 12 13  1  0
  2 14  1  0
 14 15  2  0
 15 16  1  0
 16 17  1  0
 16 18  2  0
 18 19  1  0
 19 20  2  0
 20 21  1  0
 12  4  1  0
 20 14  1  0
M  CHG  2   8   1  10  -1
M  END
$$$$
