
     RDKit          3D

 20 22  0  0  0  0  0  0  0  0999 V2000
  -19.3288   43.0438  -25.2171 C   0  0  0  0  0  0  0  0  0  0  0  0
  -18.9771   41.9483  -24.2609 C   0  0  0  0  0  0  0  0  0  0  0  0
  -18.3187   42.2602  -23.0904 C   0  0  0  0  0  0  0  0  0  0  0  0
  -17.9954   41.2295  -22.2051 C   0  0  0  0  0  0  0  0  0  0  0  0
  -17.3333   41.5273  -21.0238 O   0  0  0  0  0  0  0  0  0  0  0  0
  -18.3351   39.9178  -22.5074 C   0  0  0  0  0  0  0  0  0  0  0  0
  -18.9940   39.5976  -23.6766 C   0  0  0  0  0  0  0  0  0  0  0  0
  -19.3027   40.6366  -24.5361 C   0  0  0  0  0  0  0  0  0  0  0  0
  -19.3576   38.2048  -24.0030 C   0  0  0  0  0  0  0  0  0  0  0  0
  -19.9567   38.0156  -25.0929 O   0  0  0  0  0  0  0  0  0  0  0  0
  -19.0228   37.1329  -23.0852 C   0  0  0  0  0  0  0  0  0  0  0  0
  -19.3657   35.8360  -23.3974 C   0  0  0  0  0  0  0  0  0  0  0  0
  -19.0651   34.7904  -22.5513 C   0  0  0  0  0  0  0  0  0  0  0  0
  -19.4083   33.4689  -22.8576 O   0  0  0  0  0  0  0  0  0  0  0  0
  -18.4059   35.0986  -21.3784 C   0  0  0  0  0  0  0  0  0  0  0  0
  -18.0483   36.3920  -21.0374 C   0  0  0  0  0  0  0  0  0  0  0  0
  -17.3886   36.6498  -19.8502 O   0  0  0  0  0  0  0  0  0  0  0  0
  -18.3613   37.4372  -21.9068 C   0  0  0  0  0  0  0  0  0  0  0  0
  -17.9964   38.8221  -21.5758 C   0  0  0  0  0  0  0  0  0  0  0  0
  -17.3959   39.0884  -20.5035 O   0  0  0  0  0  0  0  0  0  0  0  0
  1  2  1  0
  2  3  2  0
  3  4  1  0
  4  5  1  0
  4  6  2  0
  6  7  1  0
  7  8  2  0
  7  9  1  0
  9 10  2  0
  9 11  1  0
 11 12  2  0
 12 13  1  0
 13 14  1  0
 13 15  2  0
 15 16  1  0
 16 17  1  0
 16 18  2  0
 18 19  1  0
 19 20  2  0
  8  2  1  0
 18 11  1  0
 19  6  1  0
M  END
$$$$
