
     RDKit          3D

 23 25  0  0  0  0  0  0  0  0999 V2000
  -27.4410   18.0960  -29.7556 O   0  0  0  0  0  0  0  0  0  0  0  0
  -28.0227   18.9723  -29.0836 C   0  0  0  0  0  0  0  0  0  0  0  0
  -28.5897   18.6243  -27.7592 C   0  0  0  0  0  0  0  0  0  0  0  0
  -28.0970   17.5454  -27.2038 C   0  0  0  0  0  0  0  0  0  0  0  0
  -28.7088   16.9767  -26.0334 C   0  0  0  0  0  0  0  0  0  0  0  0
  -27.9230   16.8530  -24.8923 C   0  0  0  0  0  0  0  0  0  0  0  0
  -28.4553   16.2865  -23.7717 C   0  0  0  0  0  0  0  0  0  0  0  0
  -29.7557   15.8423  -23.7697 C   0  0  0  0  0  0  0  0  0  0  0  0
  -30.2950   15.2676  -22.6283 O   0  0  0  0  0  0  0  0  0  0  0  0
  -30.5354   15.9640  -24.9020 C   0  0  0  0  0  0  0  0  0  0  0  0
  -30.0136   16.5405  -26.0637 C   0  0  0  0  0  0  0  0  0  0  0  0
  -29.5908   19.5238  -27.1786 C   0  0  0  0  0  0  0  0  0  0  0  0
  -30.2102   20.3966  -28.2788 C   0  0  0  0  0  0  0  0  0  0  0  0
  -29.0585   21.2833  -28.8089 C   0  0  0  0  0  0  0  0  0  0  0  0
  -28.1745   20.3583  -29.5521 C   0  0  0  0  0  0  0  0  0  0  0  0
  -27.5345   20.7303  -30.6396 C   0  0  0  0  0  0  0  0  0  0  0  0
  -27.7323   22.0600  -31.1871 C   0  0  0  0  0  0  0  0  0  0  0  0
  -28.1118   22.3435  -32.4747 C   0  0  0  0  0  0  0  0  0  0  0  0
  -28.2684   23.6350  -32.9434 C   0  0  0  0  0  0  0  0  0  0  0  0
  -28.0423   24.7165  -32.1083 C   0  0  0  0  0  0  0  0  0  0  0  0
  -28.1950   26.0301  -32.5634 O   0  0  0  0  0  0  0  0  0  0  0  0
  -27.6605   24.4555  -30.8101 C   0  0  0  0  0  0  0  0  0  0  0  0
  -27.5070   23.1548  -30.3528 C   0  0  0  0  0  0  0  0  0  0  0  0
  1  2  2  0
  2  3  1  0
  3  4  2  0
  4  5  1  0
  5  6  2  0
  6  7  1  0
  7  8  2  0
  8  9  1  0
  8 10  1  0
 10 11  2  0
  3 12  1  0
 12 13  1  0
 13 14  1  0
 14 15  1  0
 15 16  2  0
 16 17  1  0
 17 18  2  0
 18 19  1  0
 19 20  2  0
 20 21  1  0
 20 22  1  0
 22 23  2  0
 15  2  1  0
 23 17  1  0
 11  5  1  0
M  END
$$$$
