
     RDKit          3D

 19 19  0  0  0  0  0  0  0  0999 V2000
  -18.8378   39.8685  -25.5130 C   0  0  0  0  0  0  0  0  0  0  0  0
  -19.5618   39.7204  -24.1817 C   0  0  0  0  0  0  0  0  0  0  0  0
  -20.8675   40.3255  -24.3634 C   0  0  0  0  0  0  0  0  0  0  0  0
  -19.2632   38.4481  -23.6474 C   0  0  0  0  0  0  0  0  0  0  0  0
  -20.0754   37.3685  -24.0512 C   0  0  0  0  0  0  0  0  0  0  0  0
  -19.9141   36.0775  -23.6556 C   0  0  0  0  0  0  0  0  0  0  0  0
  -18.8929   35.7592  -22.7966 C   0  0  0  0  0  0  0  0  0  0  0  0
  -18.6495   34.3967  -22.3233 C   0  0  0  0  0  0  0  0  0  0  0  0
  -17.6001   34.2001  -21.6633 O   0  0  0  0  0  0  0  0  0  0  0  0
  -19.5113   33.3146  -22.5627 N   0  0  0  0  0  0  0  0  0  0  0  0
  -19.1805   32.0007  -22.1286 C   0  0  0  0  0  0  0  0  0  0  0  0
  -18.1624   31.6707  -21.5031 N   0  0  0  0  0  0  0  0  0  0  0  0
  -20.1431   30.9793  -22.4647 N   0  0  0  0  0  0  0  0  0  0  0  0
  -18.0778   36.7853  -22.3783 C   0  0  0  0  0  0  0  0  0  0  0  0
  -18.2492   38.1256  -22.7912 C   0  0  0  0  0  0  0  0  0  0  0  0
  -17.2378   39.3637  -22.2064 S   0  0  0  0  0  6  0  0  0  0  0  0
  -17.6814   40.2310  -20.7748 C   0  0  0  0  0  0  0  0  0  0  0  0
  -15.9222   38.6562  -21.7993 O   0  0  0  0  0  0  0  0  0  0  0  0
  -16.6480   40.2458  -23.3056 O   0  0  0  0  0  0  0  0  0  0  0  0
  1  2  1  0
  2  3  1  0
  2  4  1  0
  4  5  2  0
  5  6  1  0
  6  7  2  0
  7  8  1  0
  8  9  2  0
  8 10  1  0
 10 11  1  0
 11 12  2  0
 11 13  1  0
  7 14  1  0
 14 15  2  0
 15 16  1  0
 16 17  1  0
 16 18  2  0
 16 19  2  0
 15  4  1  0
M  END
$$$$
