
     RDKit          3D

 19 22  0  0  0  0  0  0  0  0999 V2000
  -18.4982   34.9645  -22.7811 O   0  0  0  0  0  0  0  0  0  0  0  0
  -18.5142   36.1792  -23.0842 C   0  0  0  0  0  0  0  0  0  0  0  0
  -17.7134   37.1945  -22.3976 C   0  0  0  0  0  0  0  0  0  0  0  0
  -16.8069   37.1253  -21.3346 C   0  0  0  0  0  0  0  0  0  0  0  0
  -16.1786   38.2646  -20.8763 C   0  0  0  0  0  0  0  0  0  0  0  0
  -16.4835   39.4544  -21.5072 C   0  0  0  0  0  0  0  0  0  0  0  0
  -17.3784   39.5199  -22.5559 C   0  0  0  0  0  0  0  0  0  0  0  0
  -18.0167   38.3843  -23.0267 C   0  0  0  0  0  0  0  0  0  0  0  0
  -18.9693   38.1457  -24.0708 N   0  0  0  0  0  0  0  0  0  0  0  0
  -19.2904   36.8420  -24.1359 C   0  0  0  0  0  0  0  0  0  0  0  0
  -20.1731   36.3600  -25.0422 N   0  0  0  0  0  0  0  0  0  0  0  0
  -20.7388   37.2174  -25.8963 C   0  0  0  0  0  0  0  0  0  0  0  0
  -21.6604   36.7916  -26.8606 C   0  0  0  0  0  0  0  0  0  0  0  0
  -22.2184   37.6872  -27.7149 C   0  0  0  0  0  0  0  0  0  0  0  0
  -21.9166   39.0295  -27.6811 C   0  0  0  0  0  0  0  0  0  0  0  0
  -21.0107   39.4567  -26.7352 C   0  0  0  0  0  0  0  0  0  0  0  0
  -20.4285   38.5568  -25.8520 C   0  0  0  0  0  0  0  0  0  0  0  0
  -19.5275   39.0248  -24.9213 C   0  0  0  0  0  0  0  0  0  0  0  0
  -19.2305   40.2441  -24.8642 O   0  0  0  0  0  0  0  0  0  0  0  0
  1  2  2  0
  2  3  1  0
  3  4  2  0
  4  5  1  0
  5  6  2  0
  6  7  1  0
  7  8  2  0
  8  9  1  0
  9 10  1  0
 10 11  2  0
 11 12  1  0
 12 13  2  0
 13 14  1  0
 14 15  2  0
 15 16  1  0
 16 17  2  0
 17 18  1  0
 18 19  2  0
 10  2  1  0
 17 12  1  0
  8  3  1  0
 18  9  1  0
M  END
$$$$
