
     RDKit          3D

 19 21  0  0  0  0  0  0  0  0999 V2000
  -19.2152   40.5090  -20.0530 O   0  0  0  0  0  0  0  0  0  0  0  0
  -17.9776   40.3288  -20.0801 C   0  0  0  0  0  0  0  0  0  0  0  0
  -17.2815   39.6778  -19.0635 O   0  0  0  0  0  0  0  0  0  0  0  0
  -17.2307   40.8383  -21.2571 C   0  0  0  0  0  0  0  0  0  0  0  0
  -16.5973   42.0969  -20.9433 N   0  0  0  0  0  0  0  0  0  0  0  0
  -17.3617   43.2998  -21.0463 C   0  0  0  0  0  0  0  0  0  0  0  0
  -18.5679   43.2664  -21.4046 O   0  0  0  0  0  0  0  0  0  0  0  0
  -16.7452   44.5807  -20.7352 C   0  0  0  0  0  0  0  0  0  0  0  0
  -17.4756   45.7418  -20.8324 C   0  0  0  0  0  0  0  0  0  0  0  0
  -16.8907   46.9384  -20.5391 C   0  0  0  0  0  0  0  0  0  0  0  0
  -15.5714   47.0124  -20.1435 C   0  0  0  0  0  0  0  0  0  0  0  0
  -14.8187   45.8489  -20.0399 C   0  0  0  0  0  0  0  0  0  0  0  0
  -13.4981   45.8724  -19.6490 C   0  0  0  0  0  0  0  0  0  0  0  0
  -12.7403   44.7267  -19.5422 C   0  0  0  0  0  0  0  0  0  0  0  0
  -13.3180   43.5153  -19.8348 C   0  0  0  0  0  0  0  0  0  0  0  0
  -14.6579   43.4735  -20.2333 C   0  0  0  0  0  0  0  0  0  0  0  0
  -15.4174   44.6210  -20.3405 C   0  0  0  0  0  0  0  0  0  0  0  0
  -15.2397   42.1540  -20.5381 C   0  0  0  0  0  0  0  0  0  0  0  0
  -14.5745   41.0961  -20.4496 O   0  0  0  0  0  0  0  0  0  0  0  0
  1  2  2  0
  2  3  1  0
  2  4  1  0
  4  5  1  0
  5  6  1  0
  6  7  2  0
  6  8  1  0
  8  9  1  0
  9 10  2  0
 10 11  1  0
 11 12  2  0
 12 13  1  0
 13 14  2  0
 14 15  1  0
 15 16  2  0
 16 17  1  0
 16 18  1  0
 18 19  2  0
 18  5  1  0
 17  8  2  0
 17 12  1  0
M  END
$$$$
