
     RDKit          3D

 40 43  0  0  0  0  0  0  0  0999 V2000
  -27.4808   19.7508  -29.0710 C   0  0  0  0  0  0  0  0  0  0  0  0
  -26.3935   18.9132  -28.6105 N   0  0  0  0  0  0  0  0  0  0  0  0
  -25.2695   18.7027  -29.4265 C   0  0  0  0  0  0  0  0  0  0  0  0
  -24.1357   19.4881  -29.3092 C   0  0  0  0  0  0  0  0  0  0  0  0
  -23.0774   19.2048  -30.1387 C   0  0  0  0  0  0  0  0  0  0  0  0
  -23.0799   18.1907  -31.0752 C   0  0  0  0  0  0  0  0  0  0  0  0
  -21.9386   17.9742  -31.8713 N   0  0  0  0  0  0  0  0  0  0  0  0
  -20.7498   17.3169  -31.4666 C   0  0  0  0  0  0  0  0  0  0  0  0
  -20.4583   17.3142  -30.2656 O   0  0  0  0  0  0  0  0  0  0  0  0
  -19.8802   16.6621  -32.3751 N   0  0  0  0  0  0  0  0  0  0  0  0
  -18.5665   16.3042  -31.9904 C   0  0  0  0  0  0  0  0  0  0  0  0
  -17.4363   16.5579  -32.7314 C   0  0  0  0  0  0  0  0  0  0  0  0
  -16.1962   16.1694  -32.2702 C   0  0  0  0  0  0  0  0  0  0  0  0
  -16.0682   15.5143  -31.0477 C   0  0  0  0  0  0  0  0  0  0  0  0
  -14.8341   15.1110  -30.5581 O   0  0  0  0  0  0  0  0  0  0  0  0
  -14.3154   13.8212  -30.7045 C   0  0  0  0  0  0  0  0  0  0  0  0
  -14.1425   13.5952  -32.0618 F   0  0  0  0  0  0  0  0  0  0  0  0
  -13.0848   13.6598  -30.1069 F   0  0  0  0  0  0  0  0  0  0  0  0
  -15.2138   12.9118  -30.1920 F   0  0  0  0  0  0  0  0  0  0  0  0
  -17.1807   15.2575  -30.3054 C   0  0  0  0  0  0  0  0  0  0  0  0
  -18.4072   15.6541  -30.7847 C   0  0  0  0  0  0  0  0  0  0  0  0
  -24.2143   17.4079  -31.1908 C   0  0  0  0  0  0  0  0  0  0  0  0
  -25.2784   17.6807  -30.3675 C   0  0  0  0  0  0  0  0  0  0  0  0
  -26.5302   18.3231  -27.3280 C   0  0  0  0  0  0  0  0  0  0  0  0
  -25.3539   17.8777  -26.7295 C   0  0  0  0  0  0  0  0  0  0  0  0
  -25.4777   17.2970  -25.4863 C   0  0  0  0  0  0  0  0  0  0  0  0
  -26.6753   17.1673  -24.8844 N   0  0  0  0  0  0  0  0  0  0  0  0
  -27.8248   17.6049  -25.4754 C   0  0  0  0  0  0  0  0  0  0  0  0
  -29.0616   17.4464  -24.8063 N   0  0  0  0  0  0  0  0  0  0  0  0
  -30.2831   17.8400  -25.4035 C   0  0  0  0  0  0  0  0  0  0  0  0
  -31.4211   18.0367  -24.6092 C   0  0  0  0  0  0  0  0  0  0  0  0
  -32.6112   18.4127  -25.1422 C   0  0  0  0  0  0  0  0  0  0  0  0
  -32.6975   18.6086  -26.5150 C   0  0  0  0  0  0  0  0  0  0  0  0
  -31.5809   18.4202  -27.3304 C   0  0  0  0  0  0  0  0  0  0  0  0
  -31.7366   18.6808  -29.0606 S   0  0  0  0  0  6  0  0  0  0  0  0
  -33.4316   18.6192  -29.4588 N   0  0  0  0  0  0  0  0  0  0  0  0
  -31.1180   19.9813  -29.4068 O   0  0  0  0  0  0  0  0  0  0  0  0
  -31.0622   17.5474  -29.7750 O   0  0  0  0  0  0  0  0  0  0  0  0
  -30.3753   18.0360  -26.7732 C   0  0  0  0  0  0  0  0  0  0  0  0
  -27.6958   18.1698  -26.6852 N   0  0  0  0  0  0  0  0  0  0  0  0
  1  2  1  0
  2  3  1  0
  3  4  2  0
  4  5  1  0
  5  6  2  0
  6  7  1  0
  7  8  1  0
  8  9  2  0
  8 10  1  0
 10 11  1  0
 11 12  2  0
 12 13  1  0
 13 14  2  0
 14 15  1  0
 15 16  1  0
 16 17  1  0
 16 18  1  0
 16 19  1  0
 14 20  1  0
 20 21  2  0
  6 22  1  0
 22 23  2  0
  2 24  1  0
 24 25  2  0
 25 26  1  0
 26 27  2  0
 27 28  1  0
 28 29  1  0
 29 30  1  0
 30 31  2  0
 31 32  1  0
 32 33  2  0
 33 34  1  0
 34 35  1  0
 35 36  1  0
 35 37  2  0
 35 38  2  0
 34 39  2  0
 28 40  2  0
 23  3  1  0
 40 24  1  0
 21 11  1  0
 39 30  1  0
M  END
$$$$
