
     RDKit          3D

 15 15  0  0  0  0  0  0  0  0999 V2000
  -18.4902   32.9373  -21.7066 O   0  0  0  0  0  0  0  0  0  0  0  0
  -19.1634   33.5020  -22.5774 C   0  0  0  0  0  0  0  0  0  0  0  0
  -20.4106   32.8815  -22.8459 O   0  0  0  0  0  0  0  0  0  0  0  0
  -18.8523   34.6998  -23.3522 C   0  0  0  0  0  0  0  0  0  0  0  0
  -18.5139   35.9293  -22.5651 C   0  0  0  0  0  0  0  0  0  0  0  0
  -18.8704   37.1555  -23.3876 C   0  0  0  0  0  0  0  0  0  0  0  0
  -18.4711   38.4354  -22.8343 C   0  0  0  0  0  0  0  0  0  0  0  0
  -17.3179   39.0708  -23.2069 C   0  0  0  0  0  0  0  0  0  0  0  0
  -16.9388   40.2927  -22.6308 C   0  0  0  0  0  0  0  0  0  0  0  0
  -17.7427   40.8695  -21.6694 C   0  0  0  0  0  0  0  0  0  0  0  0
  -18.8949   40.2424  -21.2933 C   0  0  0  0  0  0  0  0  0  0  0  0
  -19.2676   39.0382  -21.8610 C   0  0  0  0  0  0  0  0  0  0  0  0
  -17.1125   35.9064  -22.1202 C   0  0  0  0  0  0  0  0  0  0  0  0
  -16.1579   35.7746  -22.9598 O   0  0  0  0  0  0  0  0  0  0  0  0
  -16.7040   36.0238  -20.7979 O   0  0  0  0  0  0  0  0  0  0  0  0
  1  2  2  0
  2  3  1  0
  2  4  1  0
  4  5  1  0
  5  6  1  0
  6  7  1  0
  7  8  2  0
  8  9  1  0
  9 10  2  0
 10 11  1  0
 11 12  2  0
  5 13  1  0
 13 14  2  0
 13 15  1  0
 12  7  1  0
M  END
$$$$
