
     RDKit          3D

 31 31  0  0  0  0  0  0  0  0999 V2000
  -15.6703   15.5992  -29.9305 C   0  0  0  0  0  0  0  0  0  0  0  0
  -16.5316   16.5889  -30.7013 C   0  0  0  0  0  0  0  0  0  0  0  0
  -15.7249   17.6289  -31.0861 O   0  0  0  0  0  0  0  0  0  0  0  0
  -16.3597   18.6243  -31.8039 C   0  0  2  0  0  0  0  0  0  0  0  0
  -15.7697   18.7748  -33.1988 C   0  0  0  0  0  0  0  0  0  0  0  0
  -15.9110   17.5579  -33.8982 O   0  0  0  0  0  0  0  0  0  0  0  0
  -15.4560   17.4148  -35.2045 C   0  0  0  0  0  0  0  0  0  0  0  0
  -15.6245   16.2068  -35.8231 C   0  0  0  0  0  0  0  0  0  0  0  0
  -15.1788   16.0481  -37.1190 C   0  0  0  0  0  0  0  0  0  0  0  0
  -14.5819   17.0872  -37.7600 C   0  0  0  0  0  0  0  0  0  0  0  0
  -14.0956   16.9300  -39.1611 C   0  0  0  0  0  0  0  0  0  0  0  0
  -14.9678   17.6146  -39.9993 F   0  0  0  0  0  0  0  0  0  0  0  0
  -12.8201   17.4526  -39.2704 F   0  0  0  0  0  0  0  0  0  0  0  0
  -14.0317   15.5909  -39.4422 F   0  0  0  0  0  0  0  0  0  0  0  0
  -14.4170   18.3157  -37.1140 C   0  0  0  0  0  0  0  0  0  0  0  0
  -14.8619   18.4705  -35.8237 C   0  0  0  0  0  0  0  0  0  0  0  0
  -16.0912   19.9610  -31.1242 C   0  0  0  0  0  0  0  0  0  0  0  0
  -16.9204   21.2763  -32.0400 S   0  0  0  0  0  0  0  0  0  0  0  0
  -18.6858   21.1025  -31.7689 C   0  0  0  0  0  0  0  0  0  0  0  0
  -19.5850   21.8868  -32.4690 C   0  0  0  0  0  0  0  0  0  0  0  0
  -20.9211   21.7645  -32.2344 C   0  0  0  0  0  0  0  0  0  0  0  0
  -21.4591   20.8845  -31.3175 C   0  0  0  0  0  0  0  0  0  0  0  0
  -22.8198   20.7646  -31.0834 O   0  0  0  0  0  0  0  0  0  0  0  0
  -23.6871   21.5896  -31.8277 C   0  0  0  0  0  0  0  0  0  0  0  0
  -25.0730   21.3149  -31.4361 C   0  0  0  0  0  0  0  0  0  0  0  0
  -25.3391   20.4522  -30.5540 O   0  0  0  0  0  0  0  0  0  0  0  0
  -26.1084   22.0030  -32.0337 O   0  0  0  0  0  1  0  0  0  0  0  0
  -20.5538   20.1095  -30.6267 C   0  0  0  0  0  0  0  0  0  0  0  0
  -21.0664   19.1257  -29.6094 C   0  0  0  0  0  0  0  0  0  0  0  0
  -19.1883   20.2167  -30.8484 C   0  0  0  0  0  0  0  0  0  0  0  0
  -17.8350   18.9234  -32.9099 Na  0  0  0  0  0 15  0  0  0  0  0  0
  1  2  1  0
  2  3  1  0
  3  4  1  0
  4  5  1  6
  5  6  1  0
  6  7  1  0
  7  8  2  0
  8  9  1  0
  9 10  2  0
 10 11  1  0
 11 12  1  0
 11 13  1  0
 11 14  1  0
 10 15  1  0
 15 16  2  0
  4 17  1  0
 17 18  1  0
 18 19  1  0
 19 20  2  0
 20 21  1  0
 21 22  2  0
 22 23  1  0
 23 24  1  0
 24 25  1  0
 25 26  2  0
 25 27  1  0
 22 28  1  0
 28 29  1  0
 28 30  2  0
 16  7  1  0
 30 19  1  0
M  CHG  2  27  -1  31   1
M  END
$$$$
