
     RDKit          3D

 30 33  0  0  0  0  0  0  0  0999 V2000
  -26.2998   21.6960  -29.9640 C   0  0  0  0  0  0  0  0  0  0  0  0
  -27.1065   22.2836  -31.0845 C   0  0  2  0  0  0  0  0  0  0  0  0
  -26.8948   23.7866  -31.1446 C   0  0  0  0  0  0  0  0  0  0  0  0
  -27.7939   24.4169  -31.9680 O   0  0  0  0  0  0  0  0  0  0  0  0
  -28.4778   23.5910  -32.8254 C   0  0  0  0  0  0  0  0  0  0  0  0
  -29.3522   22.6672  -32.0074 C   0  0  0  0  0  0  0  0  0  0  0  0
  -28.5128   22.0472  -30.9824 N   0  0  0  0  0  0  0  0  0  0  0  0
  -29.1193   21.2627  -29.9648 C   0  0  0  0  0  0  0  0  0  0  0  0
  -30.3999   21.5280  -29.5174 C   0  0  0  0  0  0  0  0  0  0  0  0
  -31.0074   20.7834  -28.5329 C   0  0  0  0  0  0  0  0  0  0  0  0
  -32.1780   21.0601  -28.1543 O   0  0  0  0  0  0  0  0  0  0  0  0
  -30.3361   19.7693  -27.9910 N   0  0  0  0  0  0  0  0  0  0  0  0
  -29.0882   19.4922  -28.4125 C   0  0  0  0  0  0  0  0  0  0  0  0
  -28.5136   20.2226  -29.3660 N   0  0  0  0  0  0  0  0  0  0  0  0
  -28.3887   18.3612  -27.8139 N   0  0  0  0  0  0  0  0  0  0  0  0
  -27.0238   18.4999  -27.4757 C   0  0  0  0  0  0  0  0  0  0  0  0
  -26.7330   18.8684  -26.0743 C   0  0  0  0  0  0  0  0  0  0  0  0
  -27.0526   20.0945  -25.5502 C   0  0  0  0  0  0  0  0  0  0  0  0
  -26.7712   20.3922  -24.2743 N   0  0  0  0  0  0  0  0  0  0  0  0
  -26.1742   19.5152  -23.4706 C   0  0  0  0  0  0  0  0  0  0  0  0
  -25.8251   18.2620  -23.9348 C   0  0  0  0  0  0  0  0  0  0  0  0
  -25.0302   17.0864  -22.8758 Cl  0  0  0  0  0  0  0  0  0  0  0  0
  -26.1138   17.9530  -25.2485 C   0  0  0  0  0  0  0  0  0  0  0  0
  -29.1865   17.1592  -27.6193 C   0  0  2  0  0  0  0  0  0  0  0  0
  -29.2823   16.3598  -28.9144 C   0  0  0  0  0  0  0  0  0  0  0  0
  -29.6308   17.0674  -30.0053 F   0  0  0  0  0  0  0  0  0  0  0  0
  -28.0397   15.7326  -29.0475 F   0  0  0  0  0  0  0  0  0  0  0  0
  -30.1954   15.3205  -28.7706 F   0  0  0  0  0  0  0  0  0  0  0  0
  -30.5976   17.5069  -27.2535 C   0  0  0  0  0  0  0  0  0  0  0  0
  -30.8470   18.9395  -26.9267 C   0  0  0  0  0  0  0  0  0  0  0  0
  2  1  1  1
  2  3  1  0
  3  4  1  0
  4  5  1  0
  5  6  1  0
  6  7  1  0
  7  8  1  0
  8  9  2  0
  9 10  1  0
 10 11  2  0
 10 12  1  0
 12 13  1  0
 13 14  2  0
 13 15  1  0
 15 16  1  0
 16 17  1  0
 17 18  2  0
 18 19  1  0
 19 20  2  0
 20 21  1  0
 21 22  1  0
 21 23  2  0
 15 24  1  0
 24 25  1  6
 25 26  1  0
 25 27  1  0
 25 28  1  0
 24 29  1  0
 29 30  1  0
  7  2  1  0
 14  8  1  0
 23 17  1  0
 30 12  1  0
M  END
$$$$
