
     RDKit          3D

 22 24  0  0  0  0  0  0  0  0999 V2000
  -14.5605   -3.9831  -33.4205 C   0  0  0  0  0  0  0  0  0  0  0  0
  -13.4253   -3.0539  -33.2445 C   0  0  0  0  0  0  0  0  0  0  0  0
  -12.1459   -3.2392  -33.3248 O   0  0  0  0  0  0  0  0  0  0  0  0
  -11.4799   -2.1211  -33.0921 N   0  0  0  0  0  0  0  0  0  0  0  0
  -12.3584   -1.1357  -32.8430 C   0  0  0  0  0  0  0  0  0  0  0  0
  -12.0191    0.2415  -32.5424 C   0  0  0  0  0  0  0  0  0  0  0  0
  -12.4744    0.8583  -31.3827 C   0  0  0  0  0  0  0  0  0  0  0  0
  -12.1852    2.1593  -31.0445 C   0  0  0  0  0  0  0  0  0  0  0  0
  -11.4034    2.9036  -31.8910 C   0  0  0  0  0  0  0  0  0  0  0  0
  -10.9211    2.3286  -33.0696 C   0  0  0  0  0  0  0  0  0  0  0  0
  -11.2376    1.0204  -33.3664 C   0  0  0  0  0  0  0  0  0  0  0  0
  -13.5903   -1.6978  -32.9330 C   0  0  0  0  0  0  0  0  0  0  0  0
  -14.8409   -0.9724  -32.7309 C   0  0  0  0  0  0  0  0  0  0  0  0
  -15.4916   -0.9675  -31.5095 C   0  0  0  0  0  0  0  0  0  0  0  0
  -16.6780   -0.2800  -31.3144 C   0  0  0  0  0  0  0  0  0  0  0  0
  -17.2608    0.4322  -32.3408 C   0  0  0  0  0  0  0  0  0  0  0  0
  -18.7549    1.3133  -32.1424 S   0  0  0  0  0  6  0  0  0  0  0  0
  -19.6412    1.4076  -33.6204 N   0  0  0  0  0  0  0  0  0  0  0  0
  -19.6458    0.6894  -31.1189 O   0  0  0  0  0  0  0  0  0  0  0  0
  -18.4948    2.7319  -31.6961 O   0  0  0  0  0  0  0  0  0  0  0  0
  -16.6221    0.4345  -33.5609 C   0  0  0  0  0  0  0  0  0  0  0  0
  -15.4361   -0.2550  -33.7488 C   0  0  0  0  0  0  0  0  0  0  0  0
  1  2  1  0
  2  3  1  0
  3  4  1  0
  4  5  2  0
  5  6  1  0
  6  7  2  0
  7  8  1  0
  8  9  2  0
  9 10  1  0
 10 11  2  0
  5 12  1  0
 12 13  1  0
 13 14  2  0
 14 15  1  0
 15 16  2  0
 16 17  1  0
 17 18  1  0
 17 19  2  0
 17 20  2  0
 16 21  1  0
 21 22  2  0
 12  2  2  0
 22 13  1  0
 11  6  1  0
M  END
$$$$
