
     RDKit          3D

 36 39  0  0  0  0  0  0  0  0999 V2000
  -29.8836   23.7695  -31.9624 C   0  0  0  0  0  0  0  0  0  0  0  0
  -29.4529   22.5183  -32.4536 O   0  0  0  0  0  0  0  0  0  0  0  0
  -28.0856   22.3242  -32.6271 C   0  0  0  0  0  0  0  0  0  0  0  0
  -27.3954   22.9896  -33.6132 C   0  0  0  0  0  0  0  0  0  0  0  0
  -26.0553   22.8485  -33.8419 C   0  0  0  0  0  0  0  0  0  0  0  0
  -25.3691   23.5554  -34.8837 N   0  0  0  0  0  0  0  0  0  0  0  0
  -25.6611   24.8866  -35.2866 C   0  0  0  0  0  0  0  0  0  0  0  0
  -25.6581   25.0922  -36.8045 C   0  0  0  0  0  0  0  0  0  0  0  0
  -24.4853   24.4713  -37.4839 C   0  0  0  0  0  0  0  0  0  0  0  0
  -24.8637   23.6862  -38.6305 N   0  0  0  0  0  0  0  0  0  0  0  0
  -25.3045   22.3700  -38.3421 C   0  0  0  0  0  0  0  0  0  0  0  0
  -23.8940   23.7708  -39.6748 C   0  0  0  0  0  0  0  0  0  0  0  0
  -23.5709   23.7359  -36.5304 C   0  0  0  0  0  0  0  0  0  0  0  0
  -24.2968   22.8604  -35.5725 C   0  0  0  0  0  0  0  0  0  0  0  0
  -25.3636   21.9884  -33.0333 C   0  0  0  0  0  0  0  0  0  0  0  0
  -25.9990   21.2860  -32.0198 C   0  0  0  0  0  0  0  0  0  0  0  0
  -27.3525   21.4429  -31.8060 C   0  0  0  0  0  0  0  0  0  0  0  0
  -28.1059   20.7877  -30.8179 N   0  0  0  0  0  0  0  0  0  0  0  0
  -27.6667   20.3790  -29.5418 C   0  0  0  0  0  0  0  0  0  0  0  0
  -28.4676   19.7945  -28.6734 N   0  0  0  0  0  0  0  0  0  0  0  0
  -28.0712   19.3982  -27.4528 C   0  0  0  0  0  0  0  0  0  0  0  0
  -26.7510   19.6222  -27.1041 C   0  0  0  0  0  0  0  0  0  0  0  0
  -26.2093   19.1226  -25.5375 Cl  0  0  0  0  0  0  0  0  0  0  0  0
  -25.8550   20.2411  -27.9915 C   0  0  0  0  0  0  0  0  0  0  0  0
  -24.5264   20.4419  -27.5812 N   0  0  0  0  0  0  0  0  0  0  0  0
  -23.4503   20.8509  -28.3808 C   0  0  0  0  0  0  0  0  0  0  0  0
  -23.3974   20.7044  -29.7434 C   0  0  0  0  0  0  0  0  0  0  0  0
  -22.3079   21.1267  -30.4941 C   0  0  0  0  0  0  0  0  0  0  0  0
  -21.2402   21.7121  -29.8675 C   0  0  0  0  0  0  0  0  0  0  0  0
  -21.2821   21.8653  -28.4930 C   0  0  0  0  0  0  0  0  0  0  0  0
  -22.3514   21.4504  -27.7604 C   0  0  0  0  0  0  0  0  0  0  0  0
  -22.3337   21.6793  -26.0079 P   0  0  0  0  0  5  0  0  0  0  0  0
  -23.8551   20.9827  -25.3149 C   0  0  0  0  0  0  0  0  0  0  0  0
  -20.8796   20.8819  -25.2829 C   0  0  0  0  0  0  0  0  0  0  0  0
  -22.2692   23.1415  -25.6288 O   0  0  0  0  0  0  0  0  0  0  0  0
  -26.3761   20.5833  -29.1658 N   0  0  0  0  0  0  0  0  0  0  0  0
  1  2  1  0
  2  3  1  0
  3  4  2  0
  4  5  1  0
  5  6  1  0
  6  7  1  0
  7  8  1  0
  8  9  1  0
  9 10  1  0
 10 11  1  0
 10 12  1  0
  9 13  1  0
 13 14  1  0
  5 15  2  0
 15 16  1  0
 16 17  2  0
 17 18  1  0
 18 19  1  0
 19 20  2  0
 20 21  1  0
 21 22  2  0
 22 23  1  0
 22 24  1  0
 24 25  1  0
 25 26  1  0
 26 27  2  0
 27 28  1  0
 28 29  2  0
 29 30  1  0
 30 31  2  0
 31 32  1  0
 32 33  1  0
 32 34  1  0
 32 35  2  0
 24 36  2  0
 17  3  1  0
 36 19  1  0
 14  6  1  0
 31 26  1  0
M  END
$$$$
