
     RDKit          3D

 15 16  0  0  0  0  0  0  0  0999 V2000
  -20.8697   41.9414  -25.6193 C   0  0  0  0  0  0  0  0  0  0  0  0
  -19.8684   42.4174  -24.6303 C   0  0  0  0  0  0  0  0  0  0  0  0
  -19.5204   41.5685  -23.6473 N   0  0  0  0  0  0  0  0  0  0  0  0
  -18.6154   41.9561  -22.7263 C   0  0  0  0  0  0  0  0  0  0  0  0
  -18.2135   41.1379  -21.6932 C   0  0  0  0  0  0  0  0  0  0  0  0
  -18.6732   39.9956  -21.5652 O   0  0  0  0  0  0  0  0  0  0  0  0
  -17.3060   41.6105  -20.8226 N   0  0  0  0  0  0  0  0  0  0  0  0
  -16.8234   40.8189  -19.7024 C   0  0  0  0  0  0  0  0  0  0  0  0
  -16.7935   42.8691  -20.9560 C   0  0  0  0  0  0  0  0  0  0  0  0
  -15.9458   43.2862  -20.1274 O   0  0  0  0  0  0  0  0  0  0  0  0
  -17.1675   43.6902  -21.9549 N   0  0  0  0  0  0  0  0  0  0  0  0
  -18.0773   43.3173  -22.8912 C   0  0  0  0  0  0  0  0  0  0  0  0
  -18.4569   44.1322  -23.8936 N   0  0  0  0  0  0  0  0  0  0  0  0
  -17.8917   45.4646  -24.0057 C   0  0  0  0  0  0  0  0  0  0  0  0
  -19.3576   43.6516  -24.7503 N   0  0  0  0  0  0  0  0  0  0  0  0
  1  2  1  0
  2  3  1  0
  3  4  2  0
  4  5  1  0
  5  6  2  0
  5  7  1  0
  7  8  1  0
  7  9  1  0
  9 10  2  0
  9 11  1  0
 11 12  2  0
 12 13  1  0
 13 14  1  0
 13 15  1  0
 15  2  2  0
 12  4  1  0
M  END
$$$$
