
     RDKit          3D

 13 14  0  0  0  0  0  0  0  0999 V2000
  -28.1406   17.9816  -25.2258 O   0  0  0  0  0  0  0  0  0  0  0  0
  -29.2637   17.4324  -25.8553 C   0  0  0  0  0  0  0  0  0  0  0  0
  -30.0042   18.2157  -26.7181 C   0  0  0  0  0  0  0  0  0  0  0  0
  -29.5092   19.8735  -26.9941 Cl  0  0  0  0  0  0  0  0  0  0  0  0
  -31.1249   17.6708  -27.3477 C   0  0  0  0  0  0  0  0  0  0  0  0
  -31.5105   16.3777  -27.1321 C   0  0  0  0  0  0  0  0  0  0  0  0
  -32.9294   15.7022  -27.9347 Cl  0  0  0  0  0  0  0  0  0  0  0  0
  -30.7502   15.6205  -26.2645 C   0  0  0  0  0  0  0  0  0  0  0  0
  -31.0941   14.2958  -26.0053 C   0  0  0  0  0  0  0  0  0  0  0  0
  -30.3543   13.5132  -25.1433 C   0  0  0  0  0  0  0  0  0  0  0  0
  -29.2580   14.1028  -24.5496 C   0  0  0  0  0  0  0  0  0  0  0  0
  -28.8957   15.3745  -24.7743 N   0  0  0  0  0  0  0  0  0  0  0  0
  -29.6432   16.1228  -25.6287 C   0  0  0  0  0  0  0  0  0  0  0  0
  1  2  1  0
  2  3  2  0
  3  4  1  0
  3  5  1  0
  5  6  2  0
  6  7  1  0
  6  8  1  0
  8  9  2  0
  9 10  1  0
 10 11  2  0
 11 12  1  0
 12 13  2  0
 13  2  1  0
 13  8  1  0
M  END
$$$$
