
     RDKit          3D

 13 14  0  0  0  0  0  0  0  0999 V2000
  -20.7289   35.6258  -21.9368 O   0  0  0  0  0  0  0  0  0  0  0  0
  -19.7249   35.7394  -22.6432 N   0  0  0  0  0  4  0  0  0  0  0  0
  -19.4819   34.7001  -23.5382 O   0  0  0  0  0  1  0  0  0  0  0  0
  -18.8371   36.8501  -22.5823 C   0  0  0  0  0  0  0  0  0  0  0  0
  -17.7396   36.9101  -23.4116 C   0  0  0  0  0  0  0  0  0  0  0  0
  -16.8534   37.9775  -23.3790 C   0  0  0  0  0  0  0  0  0  0  0  0
  -17.0674   39.0157  -22.4938 C   0  0  0  0  0  0  0  0  0  0  0  0
  -18.1508   38.9869  -21.6541 C   0  0  0  0  0  0  0  0  0  0  0  0
  -18.6010   39.8731  -20.6863 C   0  0  0  0  0  0  0  0  0  0  0  0
  -17.7763   41.5316  -20.1977 Br  0  0  0  0  0  0  0  0  0  0  0  0
  -19.7141   39.3126  -20.1895 N   0  0  0  0  0  0  0  0  0  0  0  0
  -19.9701   38.1562  -20.7833 N   0  0  0  0  0  0  0  0  0  0  0  0
  -19.0173   37.9051  -21.7123 C   0  0  0  0  0  0  0  0  0  0  0  0
  1  2  2  0
  2  3  1  0
  2  4  1  0
  4  5  2  0
  5  6  1  0
  6  7  2  0
  7  8  1  0
  8  9  1  0
  9 10  1  0
  9 11  2  0
 11 12  1  0
 12 13  1  0
 13  4  1  0
 13  8  2  0
M  CHG  2   2   1   3  -1
M  END
$$$$
