
     RDKit          3D

 30 33  0  0  0  0  0  0  0  0999 V2000
  -35.6243   12.6007  -21.7654 C   0  0  0  0  0  0  0  0  0  0  0  0
  -35.3584   13.2339  -23.1145 C   0  0  0  0  0  0  0  0  0  0  0  0
  -34.1963   13.9075  -23.3613 C   0  0  0  0  0  0  0  0  0  0  0  0
  -33.9681   14.4761  -24.5867 C   0  0  0  0  0  0  0  0  0  0  0  0
  -32.7142   15.2107  -24.8629 C   0  0  0  0  0  0  0  0  0  0  0  0
  -31.7075   14.5741  -25.4738 N   0  0  0  0  0  0  0  0  0  0  0  0
  -30.5286   15.1977  -25.7579 C   0  0  0  0  0  0  0  0  0  0  0  0
  -30.3327   16.5166  -25.4223 C   0  0  0  0  0  0  0  0  0  0  0  0
  -29.0504   17.1623  -25.7415 C   0  0  0  0  0  0  0  0  0  0  0  0
  -29.1537   18.0474  -26.9409 C   0  0  0  0  0  0  0  0  0  0  0  0
  -29.3941   17.4869  -28.0258 O   0  0  0  0  0  0  0  0  0  0  0  0
  -28.9968   19.4302  -26.8951 N   0  0  0  0  0  0  0  0  0  0  0  0
  -28.8478   20.3443  -27.9510 C   0  0  0  0  0  0  0  0  0  0  0  0
  -29.2866   20.0995  -29.2113 C   0  0  0  0  0  0  0  0  0  0  0  0
  -29.1195   21.0459  -30.2548 C   0  0  0  0  0  0  0  0  0  0  0  0
  -28.5052   22.2418  -30.0135 C   0  0  0  0  0  0  0  0  0  0  0  0
  -28.3206   23.2267  -31.0579 C   0  0  0  0  0  0  0  0  0  0  0  0
  -29.1595   23.3667  -32.1305 C   0  0  0  0  0  0  0  0  0  0  0  0
  -28.9404   24.3155  -33.0926 N   0  0  0  0  0  0  0  0  0  0  0  0
  -27.8843   25.1403  -33.0045 C   0  0  0  0  0  0  0  0  0  0  0  0
  -27.0358   25.0138  -31.9386 C   0  0  0  0  0  0  0  0  0  0  0  0
  -27.2551   24.0806  -30.9964 N   0  0  0  0  0  0  0  0  0  0  0  0
  -28.0711   22.4538  -28.7126 C   0  0  0  0  0  0  0  0  0  0  0  0
  -28.2419   21.5444  -27.7497 N   0  0  0  0  0  0  0  0  0  0  0  0
  -31.3666   17.1699  -24.7952 C   0  0  0  0  0  0  0  0  0  0  0  0
  -32.5767   16.5289  -24.5039 C   0  0  0  0  0  0  0  0  0  0  0  0
  -33.6621   17.2934  -23.8259 C   0  0  0  0  0  0  0  0  0  0  0  0
  -34.9327   14.3545  -25.5628 C   0  0  0  0  0  0  0  0  0  0  0  0
  -36.1064   13.6759  -25.3185 C   0  0  0  0  0  0  0  0  0  0  0  0
  -36.2713   13.1404  -24.0964 N   0  0  0  0  0  0  0  0  0  0  0  0
  1  2  1  0
  2  3  2  0
  3  4  1  0
  4  5  1  0
  5  6  2  0
  6  7  1  0
  7  8  2  0
  8  9  1  0
  9 10  1  0
 10 11  2  0
 10 12  1  0
 12 13  1  0
 13 14  2  0
 14 15  1  0
 15 16  2  0
 16 17  1  0
 17 18  2  0
 18 19  1  0
 19 20  2  0
 20 21  1  0
 21 22  2  0
 16 23  1  0
 23 24  2  0
  8 25  1  0
 25 26  2  0
 26 27  1  0
  4 28  2  0
 28 29  1  0
 29 30  2  0
 30  2  1  0
 26  5  1  0
 24 13  1  0
 22 17  1  0
M  END
$$$$
