
     RDKit          3D

 11  9  0  0  0  0  0  0  0  0999 V2000
  -19.7265   38.4911  -21.9983 C   0  0  0  0  0  0  0  0  0  0  0  0
  -18.7621   38.5008  -21.1002 C   0  0  0  0  0  0  0  0  0  0  0  0
  -17.9018   37.4384  -20.9010 O   0  0  0  0  0  0  0  0  0  0  0  0
  -17.2728   36.4404  -22.1048 P   0  0  0  0  0  5  0  0  0  0  0  0
  -18.2417   35.3998  -22.5810 O   0  0  0  0  0  0  0  0  0  0  0  0
  -15.8658   35.7091  -21.4860 O   0  0  0  0  0  1  0  0  0  0  0  0
  -16.7640   37.4315  -23.3959 O   0  0  0  0  0  0  0  0  0  0  0  0
  -18.5329   39.6568  -20.2384 C   0  0  0  0  0  0  0  0  0  0  0  0
  -19.2717   40.6907  -20.3412 O   0  0  0  0  0  0  0  0  0  0  0  0
  -17.5329   39.7109  -19.2824 O   0  0  0  0  0  0  0  0  0  0  0  0
  -18.1178   38.1843  -21.4179 K   0  0  0  0  0 15  0  0  0  0  0  0
  1  2  2  0
  2  3  1  0
  3  4  1  0
  4  5  2  0
  4  6  1  0
  4  7  1  0
  2  8  1  0
  8  9  2  0
  8 10  1  0
M  CHG  2   6  -1  11   1
M  END
$$$$
