
     RDKit          3D

 20 21  0  0  0  0  0  0  0  0999 V2000
  -18.9269   40.6644  -22.1714 C   0  0  0  0  0  0  0  0  0  0  0  0
  -17.8128   39.7117  -21.7060 C   0  0  0  0  0  0  0  0  0  0  0  0
  -16.5295   40.5270  -21.7868 C   0  0  0  0  0  0  0  0  0  0  0  0
  -18.0317   39.3735  -20.2665 C   0  0  0  0  0  0  0  0  0  0  0  0
  -17.7008   38.5702  -22.6213 C   0  0  0  0  0  0  0  0  0  0  0  0
  -16.5720   38.2655  -23.0163 O   0  0  0  0  0  0  0  0  0  0  0  0
  -18.8681   37.7690  -23.0878 C   0  0  2  0  0  0  0  0  0  0  0  0
  -18.5885   36.4041  -23.0966 O   0  0  0  0  0  0  0  0  0  0  0  0
  -19.3081   35.3641  -22.5865 C   0  0  0  0  0  0  0  0  0  0  0  0
  -18.7302   34.0889  -22.6400 C   0  0  0  0  0  0  0  0  0  0  0  0
  -19.4190   33.0154  -22.1385 C   0  0  0  0  0  0  0  0  0  0  0  0
  -20.6625   33.1846  -21.5889 C   0  0  0  0  0  0  0  0  0  0  0  0
  -21.5221   31.7827  -20.9527 Cl  0  0  0  0  0  0  0  0  0  0  0  0
  -21.2188   34.4242  -21.5395 C   0  0  0  0  0  0  0  0  0  0  0  0
  -20.5402   35.5242  -22.0407 C   0  0  0  0  0  0  0  0  0  0  0  0
  -19.2983   38.1616  -24.4221 N   0  0  0  0  0  0  0  0  0  0  0  0
  -19.0643   37.5288  -25.5977 C   0  0  0  0  0  0  0  0  0  0  0  0
  -19.6459   38.2193  -26.5711 N   0  0  0  0  0  0  0  0  0  0  0  0
  -20.2505   39.2870  -26.0372 C   0  0  0  0  0  0  0  0  0  0  0  0
  -20.0142   39.2179  -24.7087 N   0  0  0  0  0  0  0  0  0  0  0  0
  1  2  1  0
  2  3  1  0
  2  4  1  0
  2  5  1  0
  5  6  2  0
  5  7  1  0
  7  8  1  6
  8  9  1  0
  9 10  2  0
 10 11  1  0
 11 12  2  0
 12 13  1  0
 12 14  1  0
 14 15  2  0
  7 16  1  0
 16 17  1  0
 17 18  2  0
 18 19  1  0
 19 20  2  0
 15  9  1  0
 20 16  1  0
M  END
$$$$
