
     RDKit          3D

 40 45  0  0  0  0  0  0  0  0999 V2000
  -20.6617   23.7666  -46.2155 O   0  0  0  0  0  0  0  0  0  0  0  0
  -20.0091   22.6999  -46.3183 C   0  0  0  0  0  0  0  0  0  0  0  0
  -20.0317   22.0218  -47.5199 C   0  0  0  0  0  0  0  0  0  0  0  0
  -19.3213   20.8589  -47.6345 C   0  0  0  0  0  0  0  0  0  0  0  0
  -19.2701   20.0578  -48.8517 C   0  0  0  0  0  0  0  0  0  0  0  0
  -18.4820   18.9446  -48.9510 C   0  0  0  0  0  0  0  0  0  0  0  0
  -18.4737   18.2148  -50.1451 C   0  0  0  0  0  0  0  0  0  0  0  0
  -19.2457   18.5934  -51.2306 C   0  0  0  0  0  0  0  0  0  0  0  0
  -19.1955   17.8291  -52.3890 O   0  0  0  0  0  0  0  0  0  0  0  0
  -20.0425   19.7158  -51.1356 C   0  0  0  0  0  0  0  0  0  0  0  0
  -20.8664   20.1355  -52.2680 C   0  0  0  0  0  0  0  0  0  0  0  0
  -22.0696   19.5360  -52.5786 C   0  0  0  0  0  0  0  0  0  0  0  0
  -22.4683   18.4827  -51.7347 O   0  0  0  0  0  0  0  0  0  0  0  0
  -22.8487   19.9325  -53.6491 C   0  0  0  0  0  0  0  0  0  0  0  0
  -22.4356   20.9680  -54.4616 C   0  0  0  0  0  0  0  0  0  0  0  0
  -23.1900   21.4004  -55.5518 O   0  0  0  0  0  0  0  0  0  0  0  0
  -21.2375   21.5823  -54.1715 C   0  0  0  0  0  0  0  0  0  0  0  0
  -20.8000   22.6183  -54.9649 C   0  0  0  0  0  0  0  0  0  0  0  0
  -21.4146   23.0666  -55.9595 O   0  0  0  0  0  0  0  0  0  0  0  0
  -19.5882   23.2041  -54.6321 C   0  0  0  0  0  0  0  0  0  0  0  0
  -18.8650   22.7553  -53.5490 C   0  0  0  0  0  0  0  0  0  0  0  0
  -17.5935   23.3626  -53.1917 C   0  0  0  0  0  0  0  0  0  0  0  0
  -16.7182   22.8028  -52.2942 C   0  0  0  0  0  0  0  0  0  0  0  0
  -15.5207   23.4454  -52.0048 C   0  0  0  0  0  0  0  0  0  0  0  0
  -15.1531   24.6289  -52.5733 C   0  0  0  0  0  0  0  0  0  0  0  0
  -13.9623   25.2667  -52.2848 O   0  0  0  0  0  0  0  0  0  0  0  0
  -16.0273   25.2015  -53.4788 C   0  0  0  0  0  0  0  0  0  0  0  0
  -17.2181   24.5730  -53.7735 C   0  0  0  0  0  0  0  0  0  0  0  0
  -19.3231   21.7522  -52.8089 O   0  0  0  0  0  0  0  0  0  0  0  0
  -20.4643   21.1779  -53.0972 C   0  0  0  0  0  0  0  0  0  0  0  0
  -20.0303   20.4059  -49.9617 C   0  0  0  0  0  0  0  0  0  0  0  0
  -18.6295   20.4152  -46.5853 O   0  0  0  0  0  0  0  0  0  0  0  0
  -18.5844   21.0266  -45.4375 C   0  0  0  0  0  0  0  0  0  0  0  0
  -17.8382   20.5018  -44.3837 C   0  0  0  0  0  0  0  0  0  0  0  0
  -17.8031   21.1637  -43.1769 C   0  0  0  0  0  0  0  0  0  0  0  0
  -17.0443   20.6058  -42.1460 O   0  0  0  0  0  0  0  0  0  0  0  0
  -18.4936   22.3443  -42.9808 C   0  0  0  0  0  0  0  0  0  0  0  0
  -19.2321   22.8582  -44.0330 C   0  0  0  0  0  0  0  0  0  0  0  0
  -19.9442   24.0513  -43.8716 O   0  0  0  0  0  0  0  0  0  0  0  0
  -19.2801   22.2044  -45.2597 C   0  0  0  0  0  0  0  0  0  0  0  0
  1  2  2  0
  2  3  1  0
  3  4  2  0
  4  5  1  0
  5  6  2  0
  6  7  1  0
  7  8  2  0
  8  9  1  0
  8 10  1  0
 10 11  1  0
 11 12  2  0
 12 13  1  0
 12 14  1  0
 14 15  2  0
 15 16  1  0
 15 17  1  0
 17 18  1  0
 18 19  2  0
 18 20  1  0
 20 21  2  0
 21 22  1  0
 22 23  2  0
 23 24  1  0
 24 25  2  0
 25 26  1  0
 25 27  1  0
 27 28  2  0
 21 29  1  0
 29 30  1  0
 10 31  2  0
  4 32  1  0
 32 33  1  0
 33 34  2  0
 34 35  1  0
 35 36  1  0
 35 37  2  0
 37 38  1  0
 38 39  1  0
 38 40  2  0
 40  2  1  0
 31  5  1  0
 40 33  1  0
 30 11  1  0
 30 17  2  0
 28 22  1  0
M  END
$$$$
