
     RDKit          3D

 26 30  0  0  0  0  0  0  0  0999 V2000
  -19.1896   16.1663  -36.9398 C   0  0  0  0  0  0  0  0  0  0  0  0
  -20.1724   17.2838  -36.6043 C   0  0  2  0  0  0  0  0  0  0  0  0
  -21.3792   17.2358  -37.4478 C   0  0  0  0  0  0  0  0  0  0  0  0
  -21.1678   17.8690  -38.7979 C   0  0  0  0  0  0  0  0  0  0  0  0
  -20.4688   19.1987  -38.7817 C   0  0  1  0  0  0  0  0  0  0  0  0
  -19.1436   18.9601  -38.0791 C   0  0  1  0  0  0  0  0  0  0  0  0
  -18.2181   20.1232  -38.0917 C   0  0  0  0  0  0  0  0  0  0  0  0
  -18.3838   21.1322  -39.1507 C   0  0  0  0  0  0  0  0  0  0  0  0
  -19.3469   20.8450  -40.2105 C   0  0  0  0  0  0  0  0  0  0  0  0
  -19.3605   21.6156  -41.2852 C   0  0  0  0  0  0  0  0  0  0  0  0
  -20.3106   21.3723  -42.3846 C   0  0  0  0  0  0  0  0  0  0  0  0
  -20.0138   21.6295  -43.5563 O   0  0  0  0  0  0  0  0  0  0  0  0
  -21.6302   20.8072  -42.0123 C   0  0  0  0  0  0  0  0  0  0  0  0
  -21.6572   20.2862  -40.5998 C   0  0  0  0  0  0  0  0  0  0  0  0
  -20.3154   19.7413  -40.1608 C   0  0  2  0  0  0  0  0  0  0  0  0
  -19.9595   18.6104  -41.1047 C   0  0  0  0  0  0  0  0  0  0  0  0
  -19.5418   18.6520  -36.7041 C   0  0  2  0  0  0  0  0  0  0  0  0
  -18.4692   18.4835  -35.6732 C   0  0  0  0  0  0  0  0  0  0  0  0
  -19.3365   17.9050  -34.5894 C   0  0  0  0  0  0  0  0  0  0  0  0
  -20.3529   17.1933  -35.1330 C   0  0  0  0  0  0  0  0  0  0  0  0
  -21.3236   16.5474  -34.2866 C   0  0  0  0  0  0  0  0  0  0  0  0
  -22.6734   16.8092  -34.4009 C   0  0  0  0  0  0  0  0  0  0  0  0
  -23.6389   16.2059  -33.5954 C   0  0  0  0  0  0  0  0  0  0  0  0
  -23.2409   15.3108  -32.6437 C   0  0  0  0  0  0  0  0  0  0  0  0
  -21.9368   15.0477  -32.5217 N   0  0  0  0  0  0  0  0  0  0  0  0
  -20.9841   15.6399  -33.3130 C   0  0  0  0  0  0  0  0  0  0  0  0
  2  1  1  6
  2  3  1  0
  3  4  1  0
  5  4  1  6
  5  6  1  0
  6  7  1  1
  7  8  1  0
  8  9  1  0
  9 10  2  0
 10 11  1  0
 11 12  2  0
 11 13  1  0
 13 14  1  0
 14 15  1  0
 15 16  1  6
  6 17  1  0
 17 18  1  1
 18 19  1  0
 19 20  2  0
 20 21  1  0
 21 22  2  0
 22 23  1  0
 23 24  2  0
 24 25  1  0
 25 26  2  0
 17  2  1  0
 26 21  1  0
 20  2  1  0
 15  5  1  0
 15  9  1  0
M  END
$$$$
