
     RDKit          3D

 30 33  0  0  0  0  0  0  0  0999 V2000
  -15.5157   13.4621  -26.5309 C   0  0  0  0  0  0  0  0  0  0  0  0
  -15.4813   14.1552  -27.7404 O   0  0  0  0  0  0  0  0  0  0  0  0
  -14.6091   13.9129  -28.7735 C   0  0  0  0  0  0  0  0  0  0  0  0
  -13.4239   13.1862  -28.5349 C   0  0  0  0  0  0  0  0  0  0  0  0
  -12.5174   12.9155  -29.5317 C   0  0  0  0  0  0  0  0  0  0  0  0
  -12.7788   13.3690  -30.7971 C   0  0  0  0  0  0  0  0  0  0  0  0
  -13.9060   14.0640  -31.0399 C   0  0  0  0  0  0  0  0  0  0  0  0
  -14.8581   14.3573  -30.0300 C   0  0  0  0  0  0  0  0  0  0  0  0
  -16.0351   15.1169  -30.4030 C   0  0  0  0  0  0  0  0  0  0  0  0
  -16.9709   15.2992  -29.5270 O   0  0  0  0  0  0  0  0  0  0  0  0
  -16.2977   15.7030  -31.6447 N   0  0  0  0  0  0  0  0  0  0  0  0
  -17.6325   16.1047  -32.0315 C   0  0  0  0  0  0  0  0  0  0  0  0
  -18.6916   15.2826  -31.8492 C   0  0  0  0  0  0  0  0  0  0  0  0
  -19.9572   15.7056  -32.2532 C   0  0  0  0  0  0  0  0  0  0  0  0
  -20.1591   16.9407  -32.8345 C   0  0  0  0  0  0  0  0  0  0  0  0
  -19.0720   17.7694  -33.0152 C   0  0  0  0  0  0  0  0  0  0  0  0
  -17.7879   17.3395  -32.6052 C   0  0  0  0  0  0  0  0  0  0  0  0
  -16.7502   18.2734  -32.8533 N   0  0  0  0  0  0  0  0  0  0  0  0
  -16.5312   19.0071  -34.0740 C   0  0  0  0  0  0  0  0  0  0  0  0
  -15.1187   18.7023  -34.5753 C   0  0  0  0  0  0  0  0  0  0  0  0
  -14.1723   18.5438  -33.5147 N   0  0  0  0  0  0  0  0  0  0  0  0
  -14.5308   19.1465  -32.2691 C   0  0  0  0  0  0  0  0  0  0  0  0
  -15.8089   18.5314  -31.7782 C   0  0  1  0  0  0  0  0  0  0  0  0
  -16.4444   19.3286  -30.6637 C   0  0  0  0  0  0  0  0  0  0  0  0
  -21.4743   17.0141  -33.0911 N   0  0  0  0  0  0  0  0  0  0  0  0
  -22.0825   18.1875  -33.7141 C   0  0  0  0  0  0  0  0  0  0  0  0
  -22.0780   15.8847  -32.6943 C   0  0  0  0  0  0  0  0  0  0  0  0
  -23.3014   15.6336  -32.7918 O   0  0  0  0  0  0  0  0  0  0  0  0
  -21.1410   15.0775  -32.1771 N   0  0  0  0  0  0  0  0  0  0  0  0
  -21.4037   13.7480  -31.6332 C   0  0  0  0  0  0  0  0  0  0  0  0
  1  2  1  0
  2  3  1  0
  3  4  2  0
  4  5  1  0
  5  6  2  0
  6  7  1  0
  7  8  2  0
  8  9  1  0
  9 10  2  0
  9 11  1  0
 11 12  1  0
 12 13  2  0
 13 14  1  0
 14 15  2  0
 15 16  1  0
 16 17  2  0
 17 18  1  0
 18 19  1  0
 19 20  1  0
 20 21  1  0
 21 22  1  0
 22 23  1  0
 23 24  1  1
 15 25  1  0
 25 26  1  0
 25 27  1  0
 27 28  2  0
 27 29  1  0
 29 30  1  0
  8  3  1  0
 17 12  1  0
 23 18  1  0
 29 14  1  0
M  END
$$$$
