
     RDKit          3D

 15 15  0  0  0  0  0  0  0  0999 V2000
  -29.3083   12.8036  -23.0484 C   0  0  0  0  0  0  0  0  0  0  0  0
  -30.2060   13.4518  -24.0754 C   0  0  0  0  0  0  0  0  0  0  0  0
  -30.2196   14.7598  -24.1780 C   0  0  0  0  0  0  0  0  0  0  0  0
  -31.0979   15.4495  -25.1065 C   0  0  0  0  0  0  0  0  0  0  0  0
  -32.4534   15.2535  -25.2147 C   0  0  0  0  0  0  0  0  0  0  0  0
  -33.2448   15.9512  -26.1314 C   0  0  0  0  0  0  0  0  0  0  0  0
  -34.6026   15.7121  -26.1949 O   0  0  0  0  0  0  0  0  0  0  0  0
  -35.1880   14.8969  -25.2113 C   0  0  0  0  0  0  0  0  0  0  0  0
  -32.6759   16.8788  -26.9744 C   0  0  0  0  0  0  0  0  0  0  0  0
  -33.5053   17.5347  -27.8560 O   0  0  0  0  0  0  0  0  0  0  0  0
  -33.2004   17.5807  -29.2376 C   0  0  0  0  0  0  0  0  0  0  0  0
  -31.3196   17.1007  -26.8931 C   0  0  0  0  0  0  0  0  0  0  0  0
  -30.5554   16.4009  -25.9805 C   0  0  0  0  0  0  0  0  0  0  0  0
  -29.1825   16.6194  -25.8919 O   0  0  0  0  0  0  0  0  0  0  0  0
  -28.3209   16.5557  -26.9853 C   0  0  0  0  0  0  0  0  0  0  0  0
  1  2  1  0
  2  3  2  0
  3  4  1  0
  4  5  2  0
  5  6  1  0
  6  7  1  0
  7  8  1  0
  6  9  2  0
  9 10  1  0
 10 11  1  0
  9 12  1  0
 12 13  2  0
 13 14  1  0
 14 15  1  0
 13  4  1  0
M  END
$$$$
