
     RDKit          3D

 24 26  0  0  0  0  0  0  0  0999 V2000
  -18.3520   32.6804  -23.9661 C   0  0  0  0  0  0  0  0  0  0  0  0
  -18.4980   34.1432  -23.7341 C   0  0  0  0  0  0  0  0  0  0  0  0
  -18.3778   34.5898  -22.5032 C   0  0  0  0  0  0  0  0  0  0  0  0
  -18.1099   33.7192  -21.3682 C   0  0  0  0  0  0  0  0  0  0  0  0
  -16.9724   33.6748  -20.8748 O   0  0  0  0  0  0  0  0  0  0  0  0
  -19.0683   32.9122  -20.7833 O   0  0  0  0  0  0  0  0  0  0  0  0
  -18.4958   35.9750  -22.1731 N   0  0  0  0  0  0  0  0  0  0  0  0
  -18.1910   37.1056  -21.3779 C   0  0  0  0  0  0  0  0  0  0  0  0
  -17.5221   37.2523  -20.3052 O   0  0  0  0  0  0  0  0  0  0  0  0
  -18.9170   38.0566  -22.2228 C   0  0  1  0  0  0  0  0  0  0  0  0
  -18.1325   39.0384  -22.9200 N   0  0  0  0  0  0  0  0  0  0  0  0
  -18.1695   40.3890  -22.4798 C   0  0  0  0  0  0  0  0  0  0  0  0
  -19.0430   40.7426  -21.6506 O   0  0  0  0  0  0  0  0  0  0  0  0
  -17.2181   41.4279  -22.9508 C   0  0  2  0  0  0  0  0  0  0  0  0
  -16.4768   42.0164  -21.8590 N   0  0  0  0  0  0  0  0  0  0  0  0
  -17.9519   42.4350  -23.7395 C   0  0  0  0  0  0  0  0  0  0  0  0
  -18.4242   42.1144  -24.9827 C   0  0  0  0  0  0  0  0  0  0  0  0
  -19.1154   43.0681  -25.7217 C   0  0  0  0  0  0  0  0  0  0  0  0
  -19.3276   44.3322  -25.2110 C   0  0  0  0  0  0  0  0  0  0  0  0
  -18.8527   44.6476  -23.9661 C   0  0  0  0  0  0  0  0  0  0  0  0
  -18.1632   43.6952  -23.2299 C   0  0  0  0  0  0  0  0  0  0  0  0
  -19.3292   36.8466  -22.9728 C   0  0  1  0  0  0  0  0  0  0  0  0
  -18.6015   36.7087  -24.6567 S   0  0  0  0  0  0  0  0  0  0  0  0
  -18.7676   34.9385  -24.9459 C   0  0  0  0  0  0  0  0  0  0  0  0
  1  2  1  0
  2  3  2  0
  3  4  1  0
  4  5  2  0
  4  6  1  0
  3  7  1  0
  7  8  1  0
  8  9  2  0
  8 10  1  0
 10 11  1  6
 11 12  1  0
 12 13  2  0
 12 14  1  0
 14 15  1  1
 14 16  1  0
 16 17  2  0
 17 18  1  0
 18 19  2  0
 19 20  1  0
 20 21  2  0
 10 22  1  0
 22 23  1  6
 23 24  1  0
 24  2  1  0
 22  7  1  0
 21 16  1  0
M  END
$$$$
