
     RDKit          3D

 25 27  0  0  0  0  0  0  0  0999 V2000
  -17.4839   19.7689  -32.1311 C   0  0  0  0  0  0  0  0  0  0  0  0
  -16.8572   19.3397  -33.3558 O   0  0  0  0  0  0  0  0  0  0  0  0
  -15.8791   18.3578  -33.3437 C   0  0  0  0  0  0  0  0  0  0  0  0
  -15.8068   17.3568  -32.4083 C   0  0  0  0  0  0  0  0  0  0  0  0
  -14.7777   16.4095  -32.4703 C   0  0  0  0  0  0  0  0  0  0  0  0
  -14.6441   15.4117  -31.4686 N   0  0  0  0  0  0  0  0  0  0  0  0
  -15.8238   14.9951  -30.7150 C   0  0  0  0  0  0  0  0  0  0  0  0
  -16.7521   15.8235  -30.6736 O   0  0  0  0  0  0  0  0  0  0  0  0
  -15.9094   13.7016  -30.0559 C   0  0  0  0  0  0  0  0  0  0  0  0
  -15.3849   13.5861  -28.7013 C   0  0  0  0  0  0  0  0  0  0  0  0
  -14.0643   13.3373  -28.4731 N   0  0  0  0  0  0  0  0  0  0  0  0
  -13.4851   13.2598  -27.3227 N   0  0  0  0  0  0  0  0  0  0  0  0
  -12.0459   12.9716  -27.1703 C   0  0  0  0  0  0  0  0  0  0  0  0
  -14.2358   13.4394  -26.2206 C   0  0  0  0  0  0  0  0  0  0  0  0
  -13.7605   13.3848  -25.0658 O   0  0  0  0  0  0  0  0  0  0  0  0
  -15.6097   13.6996  -26.3219 C   0  0  0  0  0  0  0  0  0  0  0  0
  -16.4050   13.8656  -25.1939 C   0  0  0  0  0  0  0  0  0  0  0  0
  -17.7401   14.0943  -25.3158 C   0  0  0  0  0  0  0  0  0  0  0  0
  -18.3384   14.1676  -26.5409 C   0  0  0  0  0  0  0  0  0  0  0  0
  -17.5437   14.0031  -27.6610 C   0  0  0  0  0  0  0  0  0  0  0  0
  -16.1801   13.7699  -27.5975 C   0  0  0  0  0  0  0  0  0  0  0  0
  -13.8734   16.5337  -33.4972 C   0  0  0  0  0  0  0  0  0  0  0  0
  -13.9522   17.5452  -34.4415 C   0  0  0  0  0  0  0  0  0  0  0  0
  -14.9421   18.4681  -34.3869 C   0  0  0  0  0  0  0  0  0  0  0  0
  -15.0225   19.7434  -35.5789 Cl  0  0  0  0  0  0  0  0  0  0  0  0
  1  2  1  0
  2  3  1  0
  3  4  2  0
  4  5  1  0
  5  6  1  0
  6  7  1  0
  7  8  2  0
  7  9  1  0
  9 10  1  0
 10 11  2  0
 11 12  1  0
 12 13  1  0
 12 14  1  0
 14 15  2  0
 14 16  1  0
 16 17  2  0
 17 18  1  0
 18 19  2  0
 19 20  1  0
 20 21  2  0
  5 22  2  0
 22 23  1  0
 23 24  2  0
 24 25  1  0
 24  3  1  0
 21 10  1  0
 21 16  1  0
M  END
$$$$
