
     RDKit          3D

 22 22  0  0  0  0  0  0  0  0999 V2000
  -17.7849   32.6745  -19.6477 C   0  0  0  0  0  0  0  0  0  0  0  0
  -17.5376   32.2933  -21.0977 C   0  0  0  0  0  0  0  0  0  0  0  0
  -18.7809   32.5806  -21.9373 C   0  0  0  0  0  0  0  0  0  0  0  0
  -19.0707   34.0632  -21.8388 C   0  0  0  0  0  0  0  0  0  0  0  0
  -17.9971   34.8361  -22.3196 O   0  0  0  0  0  0  0  0  0  0  0  0
  -18.0972   36.2132  -22.2959 C   0  0  0  0  0  0  0  0  0  0  0  0
  -19.2153   36.8558  -21.8173 C   0  0  0  0  0  0  0  0  0  0  0  0
  -19.3341   38.2289  -21.7843 C   0  0  0  0  0  0  0  0  0  0  0  0
  -18.3031   38.9881  -22.2455 C   0  0  0  0  0  0  0  0  0  0  0  0
  -18.3616   40.4471  -22.2213 C   0  0  0  0  0  0  0  0  0  0  0  0
  -19.3852   40.9457  -21.7376 O   0  0  0  0  0  0  0  0  0  0  0  0
  -17.2557   41.2283  -22.7468 C   0  0  0  0  0  0  0  0  0  0  0  0
  -17.3108   42.6841  -22.8424 C   0  0  0  0  0  0  0  0  0  0  0  0
  -18.2295   43.3613  -23.6690 N   0  0  0  0  0  0  0  0  0  0  0  0
  -17.7961   44.7783  -23.6572 C   0  0  0  0  0  0  0  0  0  0  0  0
  -18.6931   45.6492  -22.8320 C   0  0  0  0  0  0  0  0  0  0  0  0
  -20.0824   45.7109  -23.4636 C   0  0  0  0  0  0  0  0  0  0  0  0
  -20.3006   44.4149  -24.2335 C   0  0  0  0  0  0  0  0  0  0  0  0
  -19.6225   43.2686  -23.4199 C   0  0  0  0  0  0  0  0  0  0  0  0
  -17.1725   38.3821  -22.7303 C   0  0  0  0  0  0  0  0  0  0  0  0
  -17.0537   36.9869  -22.7623 C   0  0  0  0  0  0  0  0  0  0  0  0
  -18.3667   38.6607  -22.1637 Cl  0  0  0  0  0  0  0  0  0  0  0  0
  1  2  1  0
  2  3  1  0
  3  4  1  0
  4  5  1  0
  5  6  1  0
  6  7  2  0
  7  8  1  0
  8  9  2  0
  9 10  1  0
 10 11  2  0
 10 12  1  0
 12 13  1  0
 13 14  1  0
 14 15  1  0
 15 16  1  0
 16 17  1  0
 17 18  1  0
 18 19  1  0
  9 20  1  0
 20 21  2  0
 21  6  1  0
 19 14  1  0
M  END
$$$$
