
     RDKit          3D

 19 20  0  0  0  0  0  0  0  0999 V2000
  -18.6494   38.9744  -22.6100 Cl  0  0  0  0  0  0  0  0  0  0  0  0
  -16.9839   34.6852  -21.4639 Cl  0  0  0  0  0  0  0  0  0  0  0  0
  -17.9431   35.6670  -22.5501 C   0  0  0  0  0  0  0  0  0  0  0  0
  -18.6996   35.0683  -23.5403 C   0  0  0  0  0  0  0  0  0  0  0  0
  -19.4619   35.8242  -24.4006 C   0  0  0  0  0  0  0  0  0  0  0  0
  -19.4559   37.1946  -24.2558 C   0  0  0  0  0  0  0  0  0  0  0  0
  -18.7140   37.8411  -23.2792 C   0  0  0  0  0  0  0  0  0  0  0  0
  -18.7207   39.2566  -23.1675 N   0  0  0  0  0  0  0  0  0  0  0  0
  -18.3899   40.0089  -22.0379 C   0  0  0  0  0  0  0  0  0  0  0  0
  -18.0511   39.4592  -20.8597 N   0  0  0  0  0  0  0  0  0  0  0  0
  -17.7298   40.1145  -19.7522 C   0  0  0  0  0  0  0  0  0  0  0  0
  -17.7489   41.4710  -19.8294 N   0  0  0  0  0  0  0  0  0  0  0  0
  -18.0661   42.1315  -20.9330 C   0  0  0  0  0  0  0  0  0  0  0  0
  -18.0536   43.5031  -20.9038 C   0  0  0  0  0  0  0  0  0  0  0  0
  -18.3828   44.1908  -22.0524 C   0  0  0  0  0  0  0  0  0  0  0  0
  -18.7152   43.5023  -23.1993 C   0  0  0  0  0  0  0  0  0  0  0  0
  -18.7162   42.1221  -23.1891 C   0  0  0  0  0  0  0  0  0  0  0  0
  -18.3970   41.3878  -22.0734 C   0  0  0  0  0  0  0  0  0  0  0  0
  -17.9666   37.0630  -22.4390 C   0  0  0  0  0  0  0  0  0  0  0  0
  2  3  1  0
  3  4  2  0
  4  5  1  0
  5  6  2  0
  6  7  1  0
  7  8  1  0
  8  9  1  0
  9 10  2  0
 10 11  1  0
 11 12  2  0
 12 13  1  0
 13 14  2  0
 14 15  1  0
 15 16  2  0
 16 17  1  0
 17 18  2  0
  7 19  2  0
 19  3  1  0
 18  9  1  0
 18 13  1  0
M  END
$$$$
