
     RDKit          3D

 23 26  0  0  0  0  0  0  0  0999 V2000
  -22.0869   37.0957  -24.9183 N   0  0  0  0  0  0  0  0  0  0  0  0
  -21.0223   37.2099  -24.4565 C   0  0  0  0  0  0  0  0  0  0  0  0
  -19.7301   37.3530  -23.8798 C   0  0  0  0  0  0  0  0  0  0  0  0
  -18.6787   36.6240  -24.3913 C   0  0  0  0  0  0  0  0  0  0  0  0
  -17.3830   36.7031  -23.8873 C   0  0  0  0  0  0  0  0  0  0  0  0
  -17.1667   37.5697  -22.8135 C   0  0  0  0  0  0  0  0  0  0  0  0
  -18.1885   38.3084  -22.2810 C   0  0  0  0  0  0  0  0  0  0  0  0
  -17.9349   39.1963  -21.1698 C   0  0  0  0  0  0  0  0  0  0  0  0
  -17.6344   38.7770  -19.8592 C   0  0  0  0  0  0  0  0  0  0  0  0
  -17.5191   39.8582  -19.0914 N   0  0  0  0  0  0  0  0  0  0  0  0
  -17.7305   40.9357  -19.8510 C   0  0  0  0  0  0  0  0  0  0  0  0
  -17.7097   42.2260  -19.4797 N   0  0  0  0  0  0  0  0  0  0  0  0
  -17.9463   43.1787  -20.3911 C   0  0  0  0  0  0  0  0  0  0  0  0
  -18.1972   42.8353  -21.6497 N   0  0  0  0  0  0  0  0  0  0  0  0
  -18.2298   41.5371  -22.0805 C   0  0  0  0  0  0  0  0  0  0  0  0
  -18.4500   41.2559  -23.4374 N   0  0  0  0  0  0  0  0  0  0  0  0
  -18.0125   42.1389  -24.4801 C   0  0  0  0  0  0  0  0  0  0  0  0
  -19.2080   42.3953  -25.4442 C   0  0  0  0  0  0  0  0  0  0  0  0
  -19.7947   41.1965  -25.7941 O   0  0  0  0  0  0  0  0  0  0  0  0
  -20.3415   40.6026  -24.6889 C   0  0  0  0  0  0  0  0  0  0  0  0
  -19.1777   40.0735  -23.8193 C   0  0  0  0  0  0  0  0  0  0  0  0
  -17.9878   40.5735  -21.1339 C   0  0  0  0  0  0  0  0  0  0  0  0
  -19.4391   38.1896  -22.8161 C   0  0  0  0  0  0  0  0  0  0  0  0
  1  2  3  0
  2  3  1  0
  3  4  2  0
  4  5  1  0
  5  6  2  0
  6  7  1  0
  7  8  1  0
  8  9  2  0
  9 10  1  0
 10 11  1  0
 11 12  2  0
 12 13  1  0
 13 14  2  0
 14 15  1  0
 15 16  1  0
 16 17  1  0
 17 18  1  0
 18 19  1  0
 19 20  1  0
 20 21  1  0
 15 22  2  0
  7 23  2  0
 23  3  1  0
 22  8  1  0
 22 11  1  0
 21 16  1  0
M  END
$$$$
