
     RDKit          3D

 25 28  0  0  0  0  0  0  0  0999 V2000
  -20.9738   38.9945  -25.4364 O   0  0  0  0  0  0  0  0  0  0  0  0
  -20.2278   38.0853  -24.9220 C   0  0  0  0  0  0  0  0  0  0  0  0
  -19.8843   37.0303  -25.7222 O   0  0  0  0  0  0  0  0  0  0  0  0
  -19.8178   38.2557  -23.5292 C   0  0  2  0  0  0  0  0  0  0  0  0
  -18.7573   39.2725  -23.2696 C   0  0  0  0  0  0  0  0  0  0  0  0
  -18.5797   39.6665  -21.8701 C   0  0  0  0  0  0  0  0  0  0  0  0
  -19.1603   39.2677  -20.6991 C   0  0  0  0  0  0  0  0  0  0  0  0
  -18.6265   39.9101  -19.6489 N   0  0  0  0  0  0  0  0  0  0  0  0
  -17.6714   40.7545  -20.1206 C   0  0  0  0  0  0  0  0  0  0  0  0
  -16.8318   41.6273  -19.4639 C   0  0  0  0  0  0  0  0  0  0  0  0
  -15.9337   42.3755  -20.1916 C   0  0  0  0  0  0  0  0  0  0  0  0
  -15.8619   42.2661  -21.5593 C   0  0  0  0  0  0  0  0  0  0  0  0
  -16.7153   41.3857  -22.1831 C   0  0  0  0  0  0  0  0  0  0  0  0
  -17.6289   40.6158  -21.5017 C   0  0  0  0  0  0  0  0  0  0  0  0
  -19.3838   36.9918  -22.9858 N   0  0  0  0  0  0  0  0  0  0  0  0
  -18.0682   36.4761  -22.8477 C   0  0  0  0  0  0  0  0  0  0  0  0
  -16.9804   37.0316  -23.1563 O   0  0  0  0  0  0  0  0  0  0  0  0
  -18.1333   35.1277  -22.2634 C   0  0  0  0  0  0  0  0  0  0  0  0
  -17.2004   34.1768  -21.9176 C   0  0  0  0  0  0  0  0  0  0  0  0
  -17.5957   32.9505  -21.3679 C   0  0  0  0  0  0  0  0  0  0  0  0
  -18.9237   32.6518  -21.1534 C   0  0  0  0  0  0  0  0  0  0  0  0
  -19.8383   33.6102  -21.5046 C   0  0  0  0  0  0  0  0  0  0  0  0
  -19.4821   34.8274  -22.0486 C   0  0  0  0  0  0  0  0  0  0  0  0
  -20.2479   35.9839  -22.4961 C   0  0  0  0  0  0  0  0  0  0  0  0
  -21.5237   36.0117  -22.4247 O   0  0  0  0  0  0  0  0  0  0  0  0
  1  2  2  0
  2  3  1  0
  2  4  1  0
  4  5  1  6
  5  6  1  0
  6  7  2  0
  7  8  1  0
  8  9  1  0
  9 10  2  0
 10 11  1  0
 11 12  2  0
 12 13  1  0
 13 14  2  0
  4 15  1  0
 15 16  1  0
 16 17  2  0
 16 18  1  0
 18 19  2  0
 19 20  1  0
 20 21  2  0
 21 22  1  0
 22 23  2  0
 23 24  1  0
 24 25  2  0
 14  6  1  0
 24 15  1  0
 14  9  1  0
 23 18  1  0
M  END
$$$$
