
     RDKit          3D

 19 20  0  0  0  0  0  0  0  0999 V2000
  -18.6224   34.8814  -23.3478 C   0  0  0  0  0  0  0  0  0  0  0  0
  -19.1622   36.1719  -23.7373 N   0  0  0  0  0  0  0  0  0  0  0  0
  -20.0209   36.2470  -24.9031 C   0  0  0  0  0  0  0  0  0  0  0  0
  -18.8278   37.3297  -22.9555 C   0  0  0  0  0  0  0  0  0  0  0  0
  -18.3761   37.3032  -21.7134 C   0  0  0  0  0  0  0  0  0  0  0  0
  -18.0756   35.8676  -20.7215 Cl  0  0  0  0  0  0  0  0  0  0  0  0
  -18.1525   38.6878  -21.2619 C   0  0  0  0  0  0  0  0  0  0  0  0
  -17.7261   39.0264  -20.1318 O   0  0  0  0  0  0  0  0  0  0  0  0
  -18.4995   39.5743  -22.3171 N   0  0  0  0  0  0  0  0  0  0  0  0
  -18.4237   40.9876  -22.2744 C   0  0  0  0  0  0  0  0  0  0  0  0
  -19.2714   41.8038  -22.9911 C   0  0  0  0  0  0  0  0  0  0  0  0
  -19.1956   43.1817  -22.9479 C   0  0  0  0  0  0  0  0  0  0  0  0
  -18.2420   43.8085  -22.1638 C   0  0  0  0  0  0  0  0  0  0  0  0
  -18.1639   45.5596  -22.1240 Cl  0  0  0  0  0  0  0  0  0  0  0  0
  -17.3911   43.0019  -21.4445 C   0  0  0  0  0  0  0  0  0  0  0  0
  -16.1751   43.7559  -20.4441 Cl  0  0  0  0  0  0  0  0  0  0  0  0
  -17.4651   41.6271  -21.4863 C   0  0  0  0  0  0  0  0  0  0  0  0
  -18.9230   38.7330  -23.3803 C   0  0  0  0  0  0  0  0  0  0  0  0
  -19.3181   39.1040  -24.5073 O   0  0  0  0  0  0  0  0  0  0  0  0
  1  2  1  0
  2  3  1  0
  2  4  1  0
  4  5  2  0
  5  6  1  0
  5  7  1  0
  7  8  2  0
  7  9  1  0
  9 10  1  0
 10 11  2  0
 11 12  1  0
 12 13  2  0
 13 14  1  0
 13 15  1  0
 15 16  1  0
 15 17  2  0
  9 18  1  0
 18 19  2  0
 18  4  1  0
 17 10  1  0
M  END
$$$$
