
     RDKit          3D

 24 28  0  0  0  0  0  0  0  0999 V2000
  -22.7744   15.9655  -24.7432 O   0  0  0  0  0  0  0  0  0  0  0  0
  -23.5070   15.4743  -25.6042 C   0  0  0  0  0  0  0  0  0  0  0  0
  -22.9494   14.3780  -26.2995 O   0  0  0  0  0  0  0  0  0  0  0  0
  -24.8420   15.9183  -25.9429 C   0  0  0  0  0  0  0  0  0  0  0  0
  -25.7892   14.9651  -26.3662 C   0  0  0  0  0  0  0  0  0  0  0  0
  -27.0714   15.3015  -26.7035 C   0  0  0  0  0  0  0  0  0  0  0  0
  -27.4759   16.6172  -26.6346 C   0  0  0  0  0  0  0  0  0  0  0  0
  -26.5469   17.5589  -26.2185 C   0  0  0  0  0  0  0  0  0  0  0  0
  -25.2344   17.2263  -25.8715 C   0  0  0  0  0  0  0  0  0  0  0  0
  -24.3812   18.2224  -25.4704 C   0  0  0  0  0  0  0  0  0  0  0  0
  -24.7710   19.5658  -25.3931 C   0  0  0  0  0  0  0  0  0  0  0  0
  -26.0471   19.8847  -25.7311 C   0  0  0  0  0  0  0  0  0  0  0  0
  -26.9116   18.8842  -26.1363 C   0  0  0  0  0  0  0  0  0  0  0  0
  -28.2270   19.1973  -26.4869 C   0  0  0  0  0  0  0  0  0  0  0  0
  -28.5469   20.4140  -26.4070 O   0  0  0  0  0  0  0  0  0  0  0  0
  -29.1204   18.2820  -26.8885 N   0  0  0  0  0  0  0  0  0  0  0  0
  -30.4091   18.3309  -27.2694 C   0  0  0  0  0  0  0  0  0  0  0  0
  -31.3086   19.3969  -27.3858 C   0  0  0  0  0  0  0  0  0  0  0  0
  -32.6042   19.1963  -27.8049 C   0  0  0  0  0  0  0  0  0  0  0  0
  -33.0375   17.9291  -28.1190 C   0  0  0  0  0  0  0  0  0  0  0  0
  -32.1659   16.8624  -28.0111 C   0  0  0  0  0  0  0  0  0  0  0  0
  -30.8723   17.0721  -27.5913 C   0  0  0  0  0  0  0  0  0  0  0  0
  -29.8054   16.2439  -27.3901 N   0  0  0  0  0  0  0  0  0  0  0  0
  -28.7711   16.9876  -26.9709 C   0  0  0  0  0  0  0  0  0  0  0  0
  1  2  2  0
  2  3  1  0
  2  4  1  0
  4  5  2  0
  5  6  1  0
  6  7  2  0
  7  8  1  0
  8  9  2  0
  9 10  1  0
 10 11  2  0
 11 12  1  0
 12 13  2  0
 13 14  1  0
 14 15  2  0
 14 16  1  0
 16 17  1  0
 17 18  2  0
 18 19  1  0
 19 20  2  0
 20 21  1  0
 21 22  2  0
 22 23  1  0
 23 24  2  0
  9  4  1  0
 24 16  1  0
 24  7  1  0
 13  8  1  0
 22 17  1  0
M  END
$$$$
