
     RDKit          3D

 13 12  0  0  0  0  0  0  0  0999 V2000
  -16.9699   34.9002  -22.2423 C   0  0  0  0  0  0  0  0  0  0  0  0
  -18.4106   35.0490  -22.5678 C   0  0  0  0  0  0  0  0  0  0  0  0
  -18.9126   36.2316  -23.2387 C   0  0  0  0  0  0  0  0  0  0  0  0
  -18.3448   37.3577  -22.9665 N   0  0  0  0  0  0  0  0  0  0  0  0
  -18.9868   38.5890  -23.1221 N   0  0  0  0  0  0  0  0  0  0  0  0
  -18.3219   39.8090  -22.8179 C   0  0  0  0  0  0  0  0  0  0  0  0
  -18.9112   40.9044  -23.1680 N   0  0  0  0  0  0  0  0  0  0  0  0
  -17.0546   39.8359  -22.1531 N   0  0  0  0  0  0  0  0  0  0  0  0
  -19.2547   34.1027  -22.2490 N   0  0  0  0  0  0  0  0  0  0  0  0
  -19.1685   32.8741  -22.9051 N   0  0  0  0  0  0  0  0  0  0  0  0
  -20.1284   31.8572  -22.6457 C   0  0  0  0  0  0  0  0  0  0  0  0
  -21.2801   32.2757  -22.2132 N   0  0  0  0  0  0  0  0  0  0  0  0
  -19.8563   30.4764  -22.8428 N   0  0  0  0  0  0  0  0  0  0  0  0
  1  2  1  0
  2  3  1  0
  3  4  2  3
  4  5  1  0
  5  6  1  0
  6  7  2  0
  6  8  1  0
  2  9  2  3
  9 10  1  0
 10 11  1  0
 11 12  2  0
 11 13  1  0
M  END
$$$$
