
     RDKit          3D

 27 29  0  0  0  0  0  0  0  0999 V2000
  -28.2035   13.8409  -28.3993 C   0  0  0  0  0  0  0  0  0  0  0  0
  -27.0188   13.4422  -27.6039 C   0  0  0  0  0  0  0  0  0  0  0  0
  -26.7980   12.1142  -27.3012 C   0  0  0  0  0  0  0  0  0  0  0  0
  -27.9140   10.8539  -27.8497 Cl  0  0  0  0  0  0  0  0  0  0  0  0
  -25.6785   11.8017  -26.5563 C   0  0  0  0  0  0  0  0  0  0  0  0
  -25.4097   10.3862  -26.2130 C   0  0  0  0  0  0  0  0  0  0  0  0
  -24.8441   12.7840  -26.1507 N   0  0  0  0  0  4  0  0  0  0  0  0
  -23.7283   12.4228  -25.4019 O   0  0  0  0  0  1  0  0  0  0  0  0
  -25.0546   14.0787  -26.4429 C   0  0  0  0  0  0  0  0  0  0  0  0
  -23.9512   15.3379  -25.9021 Cl  0  0  0  0  0  0  0  0  0  0  0  0
  -26.1657   14.4411  -27.1887 C   0  0  0  0  0  0  0  0  0  0  0  0
  -26.4089   15.8558  -27.5167 C   0  0  0  0  0  0  0  0  0  0  0  0
  -25.5639   16.7720  -28.0058 N   0  0  0  0  0  0  0  0  0  0  0  0
  -26.2104   17.8913  -28.1404 O   0  0  0  0  0  0  0  0  0  0  0  0
  -27.4531   17.7585  -27.7606 C   0  0  0  0  0  0  0  0  0  0  0  0
  -28.5227   18.7468  -27.7419 C   0  0  0  0  0  0  0  0  0  0  0  0
  -29.6272   18.4567  -26.9438 C   0  0  0  0  0  0  0  0  0  0  0  0
  -30.6416   19.3895  -26.9223 C   0  0  0  0  0  0  0  0  0  0  0  0
  -31.7536   19.1010  -26.1209 O   0  0  0  0  0  0  0  0  0  0  0  0
  -30.5939   20.5592  -27.6430 C   0  0  0  0  0  0  0  0  0  0  0  0
  -31.6327   21.4866  -27.6041 O   0  0  0  0  0  0  0  0  0  0  0  0
  -29.4974   20.8573  -28.4413 C   0  0  0  0  0  0  0  0  0  0  0  0
  -29.4322   22.0548  -29.1867 N   0  0  0  0  0  4  0  0  0  0  0  0
  -28.3721   22.3730  -29.7409 O   0  0  0  0  0  0  0  0  0  0  0  0
  -30.5178   22.8760  -29.3124 O   0  0  0  0  0  1  0  0  0  0  0  0
  -28.4772   19.9155  -28.4609 C   0  0  0  0  0  0  0  0  0  0  0  0
  -27.5900   16.4817  -27.3658 N   0  0  0  0  0  0  0  0  0  0  0  0
  1  2  1  0
  2  3  2  0
  3  4  1  0
  3  5  1  0
  5  6  1  0
  5  7  2  0
  7  8  1  0
  7  9  1  0
  9 10  1  0
  9 11  2  0
 11 12  1  0
 12 13  2  0
 13 14  1  0
 14 15  1  0
 15 16  1  0
 16 17  2  0
 17 18  1  0
 18 19  1  0
 18 20  2  0
 20 21  1  0
 20 22  1  0
 22 23  1  0
 23 24  2  0
 23 25  1  0
 22 26  2  0
 15 27  2  0
 11  2  1  0
 27 12  1  0
 26 16  1  0
M  CHG  4   7   1   8  -1  23   1  25  -1
M  END
$$$$
