
     RDKit          3D

 40 46  0  0  0  0  0  0  0  0999 V2000
  -24.2658   19.3273  -30.1181 C   0  0  0  0  0  0  0  0  0  0  0  0
  -24.8113   19.9009  -31.2797 O   0  0  0  0  0  0  0  0  0  0  0  0
  -25.5647   21.0729  -31.2502 C   0  0  0  0  0  0  0  0  0  0  0  0
  -24.9576   22.3035  -31.3797 C   0  0  0  0  0  0  0  0  0  0  0  0
  -25.6555   23.4861  -31.3578 C   0  0  0  0  0  0  0  0  0  0  0  0
  -27.0468   23.4480  -31.1970 C   0  0  0  0  0  0  0  0  0  0  0  0
  -27.6803   22.2424  -31.0638 C   0  0  0  0  0  0  0  0  0  0  0  0
  -26.9323   21.0607  -31.0926 C   0  0  0  0  0  0  0  0  0  0  0  0
  -29.1084   22.4959  -30.8819 C   0  0  1  0  0  0  0  0  0  0  0  0
  -30.1287   21.5990  -31.4795 C   0  0  0  0  0  0  0  0  0  0  0  0
  -29.9937   21.7124  -30.0014 C   0  0  1  0  0  0  0  0  0  0  0  0
  -29.5766   20.5822  -29.1858 C   0  0  0  0  0  0  0  0  0  0  0  0
  -29.5903   19.3179  -29.7284 C   0  0  0  0  0  0  0  0  0  0  0  0
  -29.2171   18.1867  -29.0050 C   0  0  0  0  0  0  0  0  0  0  0  0
  -28.8182   18.2899  -27.7110 C   0  0  0  0  0  0  0  0  0  0  0  0
  -28.3992   17.3621  -26.7944 C   0  0  0  0  0  0  0  0  0  0  0  0
  -28.2532   15.9265  -26.7887 C   0  0  0  0  0  0  0  0  0  0  0  0
  -27.5053   15.1898  -26.0276 C   0  0  0  0  0  0  0  0  0  0  0  0
  -27.4210   13.7275  -26.0701 C   0  0  0  0  0  0  0  0  0  0  0  0
  -26.2425   13.1117  -26.4633 C   0  0  0  0  0  0  0  0  0  0  0  0
  -26.1225   11.7288  -26.5127 C   0  0  0  0  0  0  0  0  0  0  0  0
  -27.1859   10.9195  -26.1677 C   0  0  0  0  0  0  0  0  0  0  0  0
  -27.0742    9.4389  -26.2188 C   0  0  0  0  0  0  0  0  0  0  0  0
  -27.2780    8.9987  -27.5521 N   0  0  0  0  0  0  0  0  0  0  0  0
  -27.5667   10.0026  -28.5203 C   0  0  0  0  0  0  0  0  0  0  0  0
  -27.9714    9.4408  -29.8544 C   0  0  2  0  0  0  0  0  0  0  0  0
  -29.4793    9.5209  -30.0466 C   0  0  0  0  0  0  0  0  0  0  0  0
  -27.4897    8.1697  -30.0942 O   0  0  0  0  0  0  0  0  0  0  0  0
  -26.2387    8.0493  -29.4684 C   0  0  2  0  0  0  0  0  0  0  0  0
  -25.5423    6.8386  -30.0006 C   0  0  0  0  0  0  0  0  0  0  0  0
  -26.5366    7.8730  -27.9923 C   0  0  0  0  0  0  0  0  0  0  0  0
  -28.3413   11.5567  -25.7821 C   0  0  0  0  0  0  0  0  0  0  0  0
  -28.4684   12.9545  -25.7302 C   0  0  0  0  0  0  0  0  0  0  0  0
  -28.1284   18.1283  -25.6686 N   0  0  0  0  0  0  0  0  0  0  0  0
  -28.3654   19.3838  -25.8973 N   0  0  0  0  0  0  0  0  0  0  0  0
  -28.8010   19.5736  -27.1516 C   0  0  0  0  0  0  0  0  0  0  0  0
  -29.1684   20.6861  -27.8648 C   0  0  0  0  0  0  0  0  0  0  0  0
  -29.2724   23.9374  -31.0402 C   0  0  0  0  0  0  0  0  0  0  0  0
  -30.3518   24.6274  -31.0559 O   0  0  0  0  0  0  0  0  0  0  0  0
  -27.9925   24.5146  -31.1846 N   0  0  0  0  0  0  0  0  0  0  0  0
  1  2  1  0
  2  3  1  0
  3  4  2  0
  4  5  1  0
  5  6  2  0
  6  7  1  0
  7  8  2  0
  7  9  1  0
  9 10  1  6
 10 11  1  0
 11 12  1  6
 12 13  2  0
 13 14  1  0
 14 15  2  0
 15 16  1  0
 16 17  1  0
 17 18  2  0
 18 19  1  0
 19 20  2  0
 20 21  1  0
 21 22  2  0
 22 23  1  0
 23 24  1  0
 24 25  1  0
 25 26  1  0
 26 27  1  1
 26 28  1  0
 28 29  1  0
 29 30  1  6
 29 31  1  0
 22 32  1  0
 32 33  2  0
 16 34  2  0
 34 35  1  0
 35 36  1  0
 36 37  2  0
  9 38  1  0
 38 39  2  0
 38 40  1  0
  8  3  1  0
 11  9  1  0
 37 12  1  0
 40  6  1  0
 36 15  1  0
 33 19  1  0
 31 24  1  0
M  END
$$$$
