
     RDKit          3D

 27 30  0  0  0  0  0  0  0  0999 V2000
  -10.9915   46.5435  -14.8469 O   0  0  0  0  0  0  0  0  0  0  0  0
  -11.5380   45.6382  -15.5031 C   0  0  0  0  0  0  0  0  0  0  0  0
  -12.8934   45.0672  -15.1817 C   0  0  0  0  0  0  0  0  0  0  0  0
  -13.7574   45.1788  -16.4052 C   0  0  0  0  0  0  0  0  0  0  0  0
  -13.0764   44.5719  -17.5706 C   0  0  0  0  0  0  0  0  0  0  0  0
  -13.8297   44.0328  -18.5759 C   0  0  0  0  0  0  0  0  0  0  0  0
  -13.2676   43.4533  -19.7214 C   0  0  0  0  0  0  0  0  0  0  0  0
  -14.1415   42.9670  -20.6256 O   0  0  0  0  0  0  0  0  0  0  0  0
  -15.4655   43.2815  -20.9436 C   0  0  0  0  0  0  0  0  0  0  0  0
  -16.3573   42.0973  -20.8413 C   0  0  0  0  0  0  0  0  0  0  0  0
  -17.7737   42.2039  -21.2125 C   0  0  0  0  0  0  0  0  0  0  0  0
  -18.3931   41.2302  -22.1084 C   0  0  0  0  0  0  0  0  0  0  0  0
  -18.5483   39.8413  -21.6750 C   0  0  0  0  0  0  0  0  0  0  0  0
  -18.2658   39.2285  -20.5290 N   0  0  0  0  0  0  0  0  0  0  0  0
  -18.5778   37.9547  -20.5916 N   0  0  0  0  0  0  0  0  0  0  0  0
  -19.0669   37.7574  -21.7997 N   0  0  0  0  0  0  0  0  0  0  0  0
  -19.0701   38.8660  -22.4922 N   0  0  0  0  0  0  0  0  0  0  0  0
  -19.5068   39.1021  -23.8253 C   0  0  0  0  0  0  0  0  0  0  0  0
  -20.2645   40.4306  -23.9502 C   0  0  0  0  0  0  0  0  0  0  0  0
  -20.5239   40.6168  -25.4353 C   0  0  0  0  0  0  0  0  0  0  0  0
  -21.3890   39.5423  -26.0034 C   0  0  0  0  0  0  0  0  0  0  0  0
  -20.9929   38.1546  -25.6137 C   0  0  0  0  0  0  0  0  0  0  0  0
  -20.4917   38.0234  -24.2170 C   0  0  0  0  0  0  0  0  0  0  0  0
  -11.8954   43.4483  -19.7988 C   0  0  0  0  0  0  0  0  0  0  0  0
  -11.1429   43.9944  -18.7781 C   0  0  0  0  0  0  0  0  0  0  0  0
  -11.7079   44.5592  -17.6588 C   0  0  0  0  0  0  0  0  0  0  0  0
  -10.8637   45.0948  -16.6259 N   0  0  0  0  0  0  0  0  0  0  0  0
  1  2  2  0
  2  3  1  0
  3  4  1  0
  4  5  1  0
  5  6  2  0
  6  7  1  0
  7  8  1  0
  8  9  1  0
  9 10  1  0
 10 11  1  0
 11 12  1  0
 12 13  1  0
 13 14  2  0
 14 15  1  0
 15 16  2  0
 16 17  1  0
 17 18  1  0
 18 19  1  0
 19 20  1  0
 20 21  1  0
 21 22  1  0
 22 23  1  0
  7 24  2  0
 24 25  1  0
 25 26  2  0
 26 27  1  0
 27  2  1  0
 26  5  1  0
 17 13  1  0
 23 18  1  0
M  END
$$$$
