
     RDKit          3D

 30 32  0  0  0  0  0  0  0  0999 V2000
  -24.1654   24.2143  -36.9474 Cl  0  0  0  0  0  0  0  0  0  0  0  0
  -24.6234   24.6313  -36.4450 O   0  0  0  0  0  0  0  0  0  0  0  0
  -28.6025   24.0582  -28.7735 O   0  0  0  0  0  0  0  0  0  0  0  0
  -28.0267   24.3934  -29.8703 C   0  0  0  0  0  0  0  0  0  0  0  0
  -28.2912   23.8120  -31.2050 C   0  0  0  0  0  0  0  0  0  0  0  0
  -27.3520   24.5372  -32.1032 C   0  0  0  0  0  0  0  0  0  0  0  0
  -27.1212   24.4359  -33.4487 C   0  0  0  0  0  0  0  0  0  0  0  0
  -26.1744   25.2314  -34.1306 C   0  0  0  0  0  0  0  0  0  0  0  0
  -26.0433   25.0056  -35.5631 C   0  0  0  0  0  0  0  0  0  0  0  0
  -24.8524   25.5048  -36.2727 C   0  0  0  0  0  0  0  0  0  0  0  0
  -23.5770   25.0512  -35.8309 N   0  0  0  0  0  0  0  0  0  0  0  0
  -22.5866   25.6417  -36.7126 C   0  0  0  0  0  0  0  0  0  0  0  0
  -22.2227   24.7602  -37.8602 C   0  0  0  0  0  0  0  0  0  0  0  0
  -23.1434   23.6818  -38.0768 N   0  0  0  0  0  0  0  0  0  0  0  0
  -23.7018   23.4482  -39.3986 C   0  0  0  0  0  0  0  0  0  0  0  0
  -25.0682   23.4400  -39.5169 N   0  0  0  0  0  0  0  0  0  0  0  0
  -25.3723   23.1038  -41.2825 S   0  0  0  0  0  0  0  0  0  0  0  0
  -23.6648   23.0088  -41.6818 C   0  0  0  0  0  0  0  0  0  0  0  0
  -23.0458   22.7657  -42.9104 C   0  0  0  0  0  0  0  0  0  0  0  0
  -21.6746   22.7311  -43.0120 C   0  0  0  0  0  0  0  0  0  0  0  0
  -20.9845   22.9488  -41.8403 C   0  0  0  0  0  0  0  0  0  0  0  0
  -21.5775   23.1881  -40.6322 C   0  0  0  0  0  0  0  0  0  0  0  0
  -22.9979   23.2268  -40.5115 C   0  0  0  0  0  0  0  0  0  0  0  0
  -23.4897   22.8531  -36.9435 C   0  0  0  0  0  0  0  0  0  0  0  0
  -23.4076   23.6501  -35.6753 C   0  0  0  0  0  0  0  0  0  0  0  0
  -25.4694   26.1278  -33.4264 C   0  0  0  0  0  0  0  0  0  0  0  0
  -24.2425   27.2178  -34.1013 Cl  0  0  0  0  0  0  0  0  0  0  0  0
  -25.6965   26.2406  -32.0510 C   0  0  0  0  0  0  0  0  0  0  0  0
  -26.6292   25.4572  -31.3756 C   0  0  0  0  0  0  0  0  0  0  0  0
  -27.0302   25.3779  -30.0274 N   0  0  0  0  0  0  0  0  0  0  0  0
  3  4  2  0
  4  5  1  0
  5  6  1  0
  6  7  2  0
  7  8  1  0
  8  9  1  0
  9 10  1  0
 10 11  1  0
 11 12  1  0
 12 13  1  0
 13 14  1  0
 14 15  1  0
 15 16  2  0
 16 17  1  0
 17 18  1  0
 18 19  2  0
 19 20  1  0
 20 21  2  0
 21 22  1  0
 22 23  2  0
 14 24  1  0
 24 25  1  0
  8 26  2  0
 26 27  1  0
 26 28  1  0
 28 29  2  0
 29 30  1  0
 30  4  1  0
 29  6  1  0
 25 11  1  0
 23 15  1  0
 23 18  1  0
M  END
$$$$
