
     RDKit          3D

 17 18  0  0  0  0  0  0  0  0999 V2000
  -20.0168   34.6814  -21.1759 C   0  0  0  0  0  0  0  0  0  0  0  0
  -19.0240   34.0344  -22.1421 C   0  0  0  0  0  0  0  0  0  0  0  0
  -17.6417   34.1191  -21.5326 C   0  0  0  0  0  0  0  0  0  0  0  0
  -19.3774   32.5890  -22.3372 C   0  0  0  0  0  0  0  0  0  0  0  0
  -18.9913   34.7827  -23.4251 C   0  0  0  0  0  0  0  0  0  0  0  0
  -18.5258   34.1790  -24.4258 O   0  0  0  0  0  0  0  0  0  0  0  0
  -19.4492   36.1061  -23.5594 N   0  0  0  0  0  0  0  0  0  0  0  0
  -20.6398   36.6285  -23.0884 N   0  0  0  0  0  0  0  0  0  0  0  0
  -20.9937   37.6603  -23.7797 C   0  0  0  0  0  0  0  0  0  0  0  0
  -19.9570   37.8939  -24.8444 C   0  0  0  0  0  0  0  0  0  0  0  0
  -18.7501   37.2233  -24.2362 C   0  0  1  0  0  0  0  0  0  0  0  0
  -18.1212   38.1078  -23.2587 C   0  0  0  0  0  0  0  0  0  0  0  0
  -17.2465   39.1239  -23.6286 C   0  0  0  0  0  0  0  0  0  0  0  0
  -16.6859   39.9557  -22.6935 C   0  0  0  0  0  0  0  0  0  0  0  0
  -16.9596   39.8257  -21.3584 C   0  0  0  0  0  0  0  0  0  0  0  0
  -17.8181   38.8342  -20.9607 C   0  0  0  0  0  0  0  0  0  0  0  0
  -18.3802   37.9973  -21.9200 C   0  0  0  0  0  0  0  0  0  0  0  0
  1  2  1  0
  2  3  1  0
  2  4  1  0
  2  5  1  0
  5  6  2  0
  5  7  1  0
  7  8  1  0
  8  9  2  0
  9 10  1  0
 10 11  1  0
 11 12  1  1
 12 13  2  0
 13 14  1  0
 14 15  2  0
 15 16  1  0
 16 17  2  0
 11  7  1  0
 17 12  1  0
M  END
$$$$
