
     RDKit          3D

 32 34  0  0  0  0  0  0  0  0999 V2000
  -12.5072   21.7623   -9.3735 Cl  0  0  0  0  0  0  0  0  0  0  0  0
  -12.5080   21.7624   -9.3741 Cl  0  0  0  0  0  0  0  0  0  0  0  0
  -16.7161   23.6624  -13.9216 N   0  0  0  0  0  0  0  0  0  0  0  0
  -15.5184   24.2750  -13.4592 C   0  0  0  0  0  0  0  0  0  0  0  0
  -15.1209   25.4268  -14.0860 N   0  0  0  0  0  0  0  0  0  0  0  0
  -13.9778   26.0069  -13.7131 C   0  0  0  0  0  0  0  0  0  0  0  0
  -13.2055   25.4978  -12.7442 N   0  0  0  0  0  0  0  0  0  0  0  0
  -13.5628   24.3738  -12.1093 C   0  0  0  0  0  0  0  0  0  0  0  0
  -12.8191   23.8268  -11.1559 N   0  0  0  0  0  0  0  0  0  0  0  0
  -13.1260   22.6935  -10.5001 C   0  0  0  0  0  0  0  0  0  0  0  0
  -12.2328   22.1798   -9.4679 C   0  0  0  0  0  0  0  0  0  0  0  0
  -11.0671   22.8908   -9.1864 C   0  0  0  0  0  0  0  0  0  0  0  0
  -10.2227   22.4263   -8.2269 C   0  0  0  0  0  0  0  0  0  0  0  0
  -10.4557   21.2689   -7.5001 C   0  0  0  0  0  0  0  0  0  0  0  0
   -9.5516   20.8098   -6.5023 N   0  0  0  0  0  0  0  0  0  0  0  0
   -8.3751   21.5685   -6.2498 C   0  0  0  0  0  0  0  0  0  0  0  0
   -7.4681   21.0432   -5.2114 C   0  0  0  0  0  0  0  0  0  0  0  0
   -7.8078   19.8534   -4.6421 O   0  0  0  0  0  0  0  0  0  0  0  0
   -8.4677   18.9675   -5.4575 C   0  0  0  0  0  0  0  0  0  0  0  0
   -9.8273   19.6069   -5.7708 C   0  0  0  0  0  0  0  0  0  0  0  0
  -11.5866   20.6072   -7.7949 N   0  0  0  0  0  0  0  0  0  0  0  0
  -12.4621   21.0370   -8.7497 C   0  0  0  0  0  0  0  0  0  0  0  0
  -14.2782   22.0455  -10.8206 C   0  0  0  0  0  0  0  0  0  0  0  0
  -15.1278   22.5658  -11.8274 C   0  0  0  0  0  0  0  0  0  0  0  0
  -16.3838   21.8677  -12.0579 C   0  0  0  0  0  0  0  0  0  0  0  0
  -17.5635   22.4566  -11.6794 C   0  0  0  0  0  0  0  0  0  0  0  0
  -18.7918   21.8244  -11.8424 C   0  0  0  0  0  0  0  0  0  0  0  0
  -18.8207   20.5708  -12.4006 C   0  0  0  0  0  0  0  0  0  0  0  0
  -17.6592   19.9599  -12.7872 C   0  0  0  0  0  0  0  0  0  0  0  0
  -17.6908   18.2079  -13.5681 Br  0  0  0  0  0  0  0  0  0  0  0  0
  -16.4618   20.5963  -12.6192 C   0  0  0  0  0  0  0  0  0  0  0  0
  -14.7608   23.7279  -12.4676 C   0  0  0  0  0  0  0  0  0  0  0  0
  3  4  1  0
  4  5  2  0
  5  6  1  0
  6  7  2  0
  7  8  1  0
  8  9  2  0
  9 10  1  0
 10 11  1  0
 11 12  2  0
 12 13  1  0
 13 14  2  0
 14 15  1  0
 15 16  1  0
 16 17  1  0
 17 18  1  0
 18 19  1  0
 19 20  1  0
 14 21  1  0
 21 22  2  0
 10 23  2  0
 23 24  1  0
 24 25  1  0
 25 26  2  0
 26 27  1  0
 27 28  2  0
 28 29  1  0
 29 30  1  0
 29 31  2  0
 24 32  2  0
 32  4  1  0
 32  8  1  0
 22 11  1  0
 31 25  1  0
 20 15  1  0
M  END
$$$$
