
     RDKit          3D

 16 16  0  0  0  0  0  0  0  0999 V2000
  -31.7848   20.9232  -30.2534 C   0  0  0  0  0  0  0  0  0  0  0  0
  -30.5797   21.6376  -30.7329 C   0  0  0  0  0  0  0  0  0  0  0  0
  -30.3862   21.8477  -32.1039 C   0  0  0  0  0  0  0  0  0  0  0  0
  -29.2876   22.4991  -32.6134 C   0  0  0  0  0  0  0  0  0  0  0  0
  -28.3262   22.9711  -31.7501 C   0  0  0  0  0  0  0  0  0  0  0  0
  -28.4790   22.7849  -30.4002 C   0  0  0  0  0  0  0  0  0  0  0  0
  -27.4273   23.2963  -29.4640 C   0  0  0  0  0  0  0  0  0  0  0  0
  -29.6082   22.1177  -29.8893 C   0  0  0  0  0  0  0  0  0  0  0  0
  -29.7179   22.0016  -28.4780 N   0  0  0  0  0  0  0  0  0  0  0  0
  -29.4729   20.8372  -27.7417 C   0  0  0  0  0  0  0  0  0  0  0  0
  -29.9799   19.7300  -28.1596 N   0  0  0  0  0  0  0  0  0  0  0  0
  -29.7240   18.5323  -27.3945 C   0  0  0  0  0  0  0  0  0  0  0  0
  -28.2973   18.1965  -27.1707 C   0  0  0  0  0  0  0  0  0  0  0  0
  -27.5368   19.2292  -26.3696 C   0  0  0  0  0  0  0  0  0  0  0  0
  -28.4876   20.7869  -26.2517 S   0  0  0  0  0  0  0  0  0  0  0  0
  -29.0843   20.4811  -28.7268 Cl  0  0  0  0  0  0  0  0  0  0  0  0
  1  2  1  0
  2  3  2  0
  3  4  1  0
  4  5  2  0
  5  6  1  0
  6  7  1  0
  6  8  2  0
  8  9  1  0
  9 10  1  0
 10 11  2  0
 11 12  1  0
 12 13  1  0
 13 14  1  0
 14 15  1  0
  8  2  1  0
 15 10  1  0
M  END
$$$$
