
     RDKit          3D

 27 28  0  0  0  0  0  0  0  0999 V2000
  -18.7025   41.8912  -20.3842 O   0  0  0  0  0  0  0  0  0  0  0  0
  -18.4743   41.8223  -21.6552 C   0  0  0  0  0  0  0  0  0  0  0  0
  -18.0607   42.9563  -22.3549 N   0  0  0  0  0  0  0  0  0  0  0  0
  -17.9142   44.1175  -21.6370 O   0  0  0  0  0  0  0  0  0  0  0  0
  -18.6776   40.5308  -22.2918 C   0  0  0  0  0  0  0  0  0  0  0  0
  -19.3673   39.5247  -21.5787 C   0  0  0  0  0  0  0  0  0  0  0  0
  -19.6166   38.3470  -22.1316 N   0  0  0  0  0  0  0  0  0  0  0  0
  -19.2356   38.0214  -23.4050 C   0  0  0  0  0  0  0  0  0  0  0  0
  -19.5963   36.7561  -23.9342 N   0  0  0  0  0  0  0  0  0  0  0  0
  -20.3424   35.8387  -23.0940 C   0  0  0  0  0  0  0  0  0  0  0  0
  -19.4963   34.8575  -22.4027 C   0  0  0  0  0  0  0  0  0  0  0  0
  -18.2939   35.1859  -21.8608 C   0  0  0  0  0  0  0  0  0  0  0  0
  -17.5188   34.2081  -21.2409 C   0  0  0  0  0  0  0  0  0  0  0  0
  -16.1823   34.5686  -20.6403 C   0  0  0  0  0  0  0  0  0  0  0  0
  -15.4504   35.2445  -21.5792 F   0  0  0  0  0  0  0  0  0  0  0  0
  -16.4353   35.2620  -19.4933 F   0  0  0  0  0  0  0  0  0  0  0  0
  -15.4864   33.4164  -20.3486 F   0  0  0  0  0  0  0  0  0  0  0  0
  -18.0071   32.9250  -21.2000 C   0  0  0  0  0  0  0  0  0  0  0  0
  -19.2291   32.5827  -21.7467 C   0  0  0  0  0  0  0  0  0  0  0  0
  -19.7113   31.1570  -21.6943 C   0  0  0  0  0  0  0  0  0  0  0  0
  -18.9189   30.4756  -20.8076 F   0  0  0  0  0  0  0  0  0  0  0  0
  -21.0038   31.1648  -21.2658 F   0  0  0  0  0  0  0  0  0  0  0  0
  -19.5740   30.5826  -22.9455 F   0  0  0  0  0  0  0  0  0  0  0  0
  -19.9659   33.5466  -22.3417 C   0  0  0  0  0  0  0  0  0  0  0  0
  -18.5842   38.9662  -24.0805 N   0  0  0  0  0  0  0  0  0  0  0  0
  -18.3060   40.1807  -23.5614 C   0  0  0  0  0  0  0  0  0  0  0  0
  -17.6920   40.9920  -24.2794 O   0  0  0  0  0  0  0  0  0  0  0  0
  1  2  2  0
  2  3  1  0
  3  4  1  0
  2  5  1  0
  5  6  2  0
  6  7  1  0
  7  8  1  0
  8  9  1  0
  9 10  1  0
 10 11  1  0
 11 12  2  0
 12 13  1  0
 13 14  1  0
 14 15  1  0
 14 16  1  0
 14 17  1  0
 13 18  2  0
 18 19  1  0
 19 20  1  0
 20 21  1  0
 20 22  1  0
 20 23  1  0
 19 24  2  0
  8 25  2  0
 25 26  1  0
 26 27  2  0
 26  5  1  0
 24 11  1  0
M  END
$$$$
