
     RDKit          3D

 18 20  0  0  0  0  0  0  0  0999 V2000
  -13.4287   43.2905  -21.9744 C   0  0  0  0  0  0  0  0  0  0  0  0
  -14.7489   43.1990  -22.4152 O   0  0  0  0  0  0  0  0  0  0  0  0
  -15.7218   42.4843  -21.7391 C   0  0  0  0  0  0  0  0  0  0  0  0
  -16.2359   43.0526  -20.5653 C   0  0  0  0  0  0  0  0  0  0  0  0
  -17.2032   42.3739  -19.8640 C   0  0  0  0  0  0  0  0  0  0  0  0
  -17.6592   41.1430  -20.3179 C   0  0  0  0  0  0  0  0  0  0  0  0
  -17.1672   40.5652  -21.4706 C   0  0  0  0  0  0  0  0  0  0  0  0
  -16.1908   41.2652  -22.1661 C   0  0  0  0  0  0  0  0  0  0  0  0
  -17.8185   39.2659  -21.7169 C   0  0  0  0  0  0  0  0  0  0  0  0
  -17.5816   38.4888  -22.7602 C   0  0  0  0  0  0  0  0  0  0  0  0
  -18.2760   37.2348  -22.9279 C   0  0  0  0  0  0  0  0  0  0  0  0
  -17.8939   36.1983  -23.7672 C   0  0  0  0  0  0  0  0  0  0  0  0
  -18.7915   35.2265  -23.5710 N   0  0  0  0  0  0  0  0  0  0  0  0
  -19.6963   35.6453  -22.6446 C   0  0  0  0  0  0  0  0  0  0  0  0
  -19.3775   36.8845  -22.2473 N   0  0  0  0  0  0  0  0  0  0  0  0
  -18.7571   39.0858  -20.6226 C   0  0  0  0  0  0  0  0  0  0  0  0
  -19.5257   38.0952  -20.4535 O   0  0  0  0  0  0  0  0  0  0  0  0
  -18.6400   40.2324  -19.7930 N   0  0  0  0  0  0  0  0  0  0  0  0
  1  2  1  0
  2  3  1  0
  3  4  2  0
  4  5  1  0
  5  6  2  0
  6  7  1  0
  7  8  2  0
  7  9  1  0
  9 10  2  0
 10 11  1  0
 11 12  2  0
 12 13  1  0
 13 14  2  0
 14 15  1  0
  9 16  1  0
 16 17  2  0
 16 18  1  0
  8  3  1  0
 15 11  1  0
 18  6  1  0
M  END
$$$$
