
     RDKit          3D

 25 27  0  0  0  0  0  0  0  0999 V2000
  -23.7488   16.2650  -39.6564 O   0  0  0  0  0  0  0  0  0  0  0  0
  -23.5086   16.6254  -38.3302 C   0  0  0  0  0  0  0  0  0  0  0  0
  -22.1716   17.3565  -38.2439 C   0  0  0  0  0  0  0  0  0  0  0  0
  -21.8741   17.7968  -36.8512 C   0  0  0  0  0  0  0  0  0  0  0  0
  -20.6321   18.5178  -36.7768 N   0  0  0  0  0  0  0  0  0  0  0  0
  -19.5690   18.1220  -35.9262 C   0  0  0  0  0  0  0  0  0  0  0  0
  -19.7333   17.0803  -35.0050 C   0  0  0  0  0  0  0  0  0  0  0  0
  -18.7480   16.6647  -34.1696 C   0  0  0  0  0  0  0  0  0  0  0  0
  -18.8939   15.5905  -33.2007 C   0  0  0  0  0  0  0  0  0  0  0  0
  -20.1141   15.0615  -32.8513 C   0  0  0  0  0  0  0  0  0  0  0  0
  -20.2281   14.0464  -31.9260 C   0  0  0  0  0  0  0  0  0  0  0  0
  -19.1044   13.5804  -31.3666 N   0  0  0  0  0  0  0  0  0  0  0  0
  -17.8871   14.0693  -31.6794 C   0  0  0  0  0  0  0  0  0  0  0  0
  -16.7622   13.5102  -31.0262 N   0  0  0  0  0  0  0  0  0  0  0  0
  -15.4404   13.9275  -31.3407 C   0  0  0  0  0  0  0  0  0  0  0  0
  -14.3852   13.7205  -30.4515 C   0  0  0  0  0  0  0  0  0  0  0  0
  -13.1024   14.1189  -30.7593 C   0  0  0  0  0  0  0  0  0  0  0  0
  -12.8287   14.7331  -31.9549 C   0  0  0  0  0  0  0  0  0  0  0  0
  -13.8460   14.9485  -32.8460 C   0  0  0  0  0  0  0  0  0  0  0  0
  -13.5417   15.7275  -34.3822 Cl  0  0  0  0  0  0  0  0  0  0  0  0
  -15.1286   14.5470  -32.5319 C   0  0  0  0  0  0  0  0  0  0  0  0
  -17.8029   15.0556  -32.5815 N   0  0  0  0  0  0  0  0  0  0  0  0
  -17.5243   17.3190  -34.2495 C   0  0  0  0  0  0  0  0  0  0  0  0
  -17.3472   18.3540  -35.1583 C   0  0  0  0  0  0  0  0  0  0  0  0
  -18.3631   18.7068  -35.9473 N   0  0  0  0  0  0  0  0  0  0  0  0
  1  2  1  0
  2  3  1  0
  3  4  1  0
  4  5  1  0
  5  6  1  0
  6  7  2  0
  7  8  1  0
  8  9  1  0
  9 10  2  0
 10 11  1  0
 11 12  2  0
 12 13  1  0
 13 14  1  0
 14 15  1  0
 15 16  2  0
 16 17  1  0
 17 18  2  0
 18 19  1  0
 19 20  1  0
 19 21  2  0
 13 22  2  0
  8 23  2  0
 23 24  1  0
 24 25  2  0
 25  6  1  0
 22  9  1  0
 21 15  1  0
M  END
$$$$
