
     RDKit          3D

 12 12  0  0  0  0  0  0  0  0999 V2000
  -15.8220   31.3458  -21.3440 C   0  0  0  0  0  0  0  0  0  0  0  0
  -17.0035   32.0345  -21.9631 C   0  0  0  0  0  0  0  0  0  0  0  0
  -17.0979   33.4831  -21.7348 C   0  0  0  0  0  0  0  0  0  0  0  0
  -18.1916   34.2165  -22.4215 C   0  0  0  0  0  0  0  0  0  0  0  0
  -18.0407   35.6492  -22.4843 C   0  0  0  0  0  0  0  0  0  0  0  0
  -18.4806   36.5793  -21.5805 C   0  0  0  0  0  0  0  0  0  0  0  0
  -18.0474   37.8076  -22.0279 C   0  0  0  0  0  0  0  0  0  0  0  0
  -18.2821   39.1148  -21.3784 C   0  0  0  0  0  0  0  0  0  0  0  0
  -18.7802   39.1293  -20.2291 O   0  0  0  0  0  0  0  0  0  0  0  0
  -17.9733   40.3146  -21.9906 O   0  0  0  0  0  0  0  0  0  0  0  0
  -17.3665   37.6079  -23.1707 N   0  0  0  0  0  0  0  0  0  0  0  0
  -17.3689   36.3140  -23.4340 N   0  0  0  0  0  0  0  0  0  0  0  0
  1  2  1  0
  2  3  1  0
  3  4  1  0
  4  5  1  0
  5  6  1  0
  6  7  2  0
  7  8  1  0
  8  9  2  0
  8 10  1  0
  7 11  1  0
 11 12  1  0
 12  5  2  0
M  END
$$$$
