
     RDKit          3D

 22 25  0  0  0  0  0  0  0  0999 V2000
  -17.3078   45.5059  -22.6473 C   0  0  0  0  0  0  0  0  0  0  0  0
  -16.4312   44.4735  -22.2510 O   0  0  0  0  0  0  0  0  0  0  0  0
  -16.9012   43.1741  -22.2249 C   0  0  0  0  0  0  0  0  0  0  0  0
  -16.0721   42.1100  -21.8857 C   0  0  0  0  0  0  0  0  0  0  0  0
  -16.5722   40.8328  -21.8700 C   0  0  0  0  0  0  0  0  0  0  0  0
  -17.8911   40.5505  -22.1829 C   0  0  0  0  0  0  0  0  0  0  0  0
  -18.3817   39.1799  -22.1540 C   0  0  0  0  0  0  0  0  0  0  0  0
  -17.5037   38.1263  -22.0846 C   0  0  0  0  0  0  0  0  0  0  0  0
  -18.0061   36.8455  -22.0593 C   0  0  0  0  0  0  0  0  0  0  0  0
  -19.3633   36.5959  -22.1017 C   0  0  0  0  0  0  0  0  0  0  0  0
  -20.1612   37.6819  -22.1692 N   0  0  0  0  0  0  0  0  0  0  0  0
  -19.6991   38.9018  -22.1940 N   0  0  0  0  0  0  0  0  0  0  0  0
  -19.6207   35.1533  -22.0616 C   0  0  0  0  0  0  0  0  0  0  0  0
  -20.8196   34.4430  -22.0822 C   0  0  0  0  0  0  0  0  0  0  0  0
  -20.8243   33.0649  -22.0348 C   0  0  0  0  0  0  0  0  0  0  0  0
  -19.6151   32.4002  -21.9663 C   0  0  0  0  0  0  0  0  0  0  0  0
  -18.4321   33.1064  -21.9462 C   0  0  0  0  0  0  0  0  0  0  0  0
  -18.4172   34.4824  -21.9931 C   0  0  0  0  0  0  0  0  0  0  0  0
  -17.3811   35.5087  -21.9896 C   0  0  0  0  0  0  0  0  0  0  0  0
  -16.1585   35.2979  -21.9363 O   0  0  0  0  0  0  0  0  0  0  0  0
  -18.6885   41.6075  -22.5130 C   0  0  0  0  0  0  0  0  0  0  0  0
  -18.2233   42.9243  -22.5423 C   0  0  0  0  0  0  0  0  0  0  0  0
  1  2  1  0
  2  3  1  0
  3  4  2  0
  4  5  1  0
  5  6  2  0
  6  7  1  0
  7  8  2  0
  8  9  1  0
  9 10  2  0
 10 11  1  0
 11 12  2  0
 10 13  1  0
 13 14  2  0
 14 15  1  0
 15 16  2  0
 16 17  1  0
 17 18  2  0
 18 19  1  0
 19 20  2  0
  6 21  1  0
 21 22  2  0
 22  3  1  0
 12  7  1  0
 18 13  1  0
 19  9  1  0
M  END
$$$$
