
     RDKit          3D

 20 21  0  0  0  0  0  0  0  0999 V2000
    1.4445   17.0460  -17.4511 O   0  0  0  0  0  0  0  0  0  0  0  0
    0.4497   16.8438  -18.2332 C   0  0  0  0  0  0  0  0  0  0  0  0
   -0.4766   15.9631  -17.7561 O   0  0  0  0  0  0  0  0  0  0  0  0
    0.4122   17.5444  -19.4952 C   0  0  0  0  0  0  0  0  0  0  0  0
   -0.7856   17.4962  -20.2323 C   0  0  0  0  0  0  0  0  0  0  0  0
   -0.9130   18.1252  -21.4409 C   0  0  0  0  0  0  0  0  0  0  0  0
    0.1165   18.8337  -21.9953 C   0  0  0  0  0  0  0  0  0  0  0  0
    1.2962   18.9041  -21.3091 C   0  0  0  0  0  0  0  0  0  0  0  0
    1.4387   18.2619  -20.0681 C   0  0  0  0  0  0  0  0  0  0  0  0
    2.6788   18.3266  -19.3824 N   0  0  0  0  0  0  0  0  0  0  0  0
    3.4405   19.5393  -19.2767 C   0  0  0  0  0  0  0  0  0  0  0  0
    4.7171   19.5886  -19.7487 C   0  0  0  0  0  0  0  0  0  0  0  0
    5.4722   20.7600  -19.6658 C   0  0  0  0  0  0  0  0  0  0  0  0
    4.9300   21.8895  -19.1003 C   0  0  0  0  0  0  0  0  0  0  0  0
    3.6405   21.8526  -18.6192 C   0  0  0  0  0  0  0  0  0  0  0  0
    3.0896   23.0894  -18.0161 C   0  0  0  0  0  0  0  0  0  0  0  0
    3.9959   24.1167  -18.1724 F   0  0  0  0  0  0  0  0  0  0  0  0
    1.8581   23.3946  -18.5939 F   0  0  0  0  0  0  0  0  0  0  0  0
    2.8671   22.8162  -16.6679 F   0  0  0  0  0  0  0  0  0  0  0  0
    2.9006   20.6935  -18.7041 C   0  0  0  0  0  0  0  0  0  0  0  0
  1  2  2  0
  2  3  1  0
  2  4  1  0
  4  5  2  0
  5  6  1  0
  6  7  2  0
  7  8  1  0
  8  9  2  0
  9 10  1  0
 10 11  1  0
 11 12  2  0
 12 13  1  0
 13 14  2  0
 14 15  1  0
 15 16  1  0
 16 17  1  0
 16 18  1  0
 16 19  1  0
 15 20  2  0
  9  4  1  0
 20 11  1  0
M  END
$$$$
