
     RDKit          3D

 26 27  0  0  0  0  0  0  0  0999 V2000
  -23.4465   14.8271  -37.1802 C   0  0  0  0  0  0  0  0  0  0  0  0
  -22.8962   15.6449  -36.0588 C   0  0  0  0  0  0  0  0  0  0  0  0
  -23.5111   15.3710  -34.7443 C   0  0  0  0  0  0  0  0  0  0  0  0
  -24.3269   16.2662  -34.1056 C   0  0  0  0  0  0  0  0  0  0  0  0
  -24.8793   15.9422  -32.8594 C   0  0  0  0  0  0  0  0  0  0  0  0
  -24.6256   14.7399  -32.2500 C   0  0  0  0  0  0  0  0  0  0  0  0
  -25.1892   14.3912  -30.9708 C   0  0  0  0  0  0  0  0  0  0  0  0
  -24.3990   14.0530  -30.0226 O   0  0  0  0  0  0  0  0  0  0  0  0
  -26.5505   14.3908  -30.6789 N   0  0  0  0  0  0  0  0  0  0  0  0
  -27.1492   14.8449  -29.4950 N   0  0  0  0  0  0  0  0  0  0  0  0
  -26.8455   14.2026  -28.2993 C   0  0  0  0  0  0  0  0  0  0  0  0
  -27.0314   14.9017  -27.2222 O   0  0  0  0  0  0  0  0  0  0  0  0
  -26.3465   12.8475  -28.1022 C   0  0  0  0  0  0  0  0  0  0  0  0
  -26.8265   11.7758  -28.8501 C   0  0  0  0  0  0  0  0  0  0  0  0
  -26.3487   10.4891  -28.6856 C   0  0  0  0  0  0  0  0  0  0  0  0
  -26.8645    9.3444  -29.4872 C   0  0  0  0  0  0  0  0  0  0  0  0
  -25.3644   10.2154  -27.7607 C   0  0  0  0  0  0  0  0  0  0  0  0
  -24.8832   11.2661  -27.0163 C   0  0  0  0  0  0  0  0  0  0  0  0
  -23.8243   10.9506  -26.0145 C   0  0  0  0  0  0  0  0  0  0  0  0
  -25.3621   12.5583  -27.1813 C   0  0  0  0  0  0  0  0  0  0  0  0
  -28.0655   15.9366  -29.5829 C   0  0  0  0  0  0  0  0  0  0  0  0
  -27.5320   16.8890  -30.6678 C   0  0  0  0  0  0  0  0  0  0  0  0
  -29.4810   15.5328  -29.8808 C   0  0  0  0  0  0  0  0  0  0  0  0
  -28.1017   16.7375  -28.2810 C   0  0  0  0  0  0  0  0  0  0  0  0
  -23.8020   13.8533  -32.9097 C   0  0  0  0  0  0  0  0  0  0  0  0
  -23.2480   14.1614  -34.1446 C   0  0  0  0  0  0  0  0  0  0  0  0
  1  2  1  0
  2  3  1  0
  3  4  2  0
  4  5  1  0
  5  6  2  0
  6  7  1  0
  7  8  2  0
  7  9  1  0
  9 10  1  0
 10 11  1  0
 11 12  2  0
 11 13  1  0
 13 14  2  0
 14 15  1  0
 15 16  1  0
 15 17  2  0
 17 18  1  0
 18 19  1  0
 18 20  2  0
 10 21  1  0
 21 22  1  0
 21 23  1  0
 21 24  1  0
  6 25  1  0
 25 26  2  0
 26  3  1  0
 20 13  1  0
M  END
$$$$
