
     RDKit          3D

 26 27  0  0  0  0  0  0  0  0999 V2000
  -25.6536   24.4034  -34.4046 Cl  0  0  0  0  0  0  0  0  0  0  0  0
  -25.1264   29.3742  -36.0060 O   0  0  0  0  0  0  0  0  0  0  0  0
  -25.1409   28.8080  -37.1254 C   0  0  0  0  0  0  0  0  0  0  0  0
  -25.0036   29.5947  -38.2533 O   0  0  0  0  0  0  0  0  0  0  0  0
  -25.3012   27.3555  -37.1814 C   0  0  0  0  0  0  0  0  0  0  0  0
  -24.1250   26.6590  -37.8574 C   0  0  0  0  0  0  0  0  0  0  0  0
  -24.6365   25.2534  -38.2009 C   0  0  0  0  0  0  0  0  0  0  0  0
  -25.6101   24.7602  -37.1659 C   0  0  0  0  0  0  0  0  0  0  0  0
  -25.2725   25.3093  -35.8761 N   0  0  0  0  0  0  0  0  0  0  0  0
  -26.0546   24.7553  -34.8050 C   0  0  0  0  0  0  0  0  0  0  0  0
  -25.7850   23.3273  -34.5107 C   0  0  0  0  0  0  0  0  0  0  0  0
  -26.6485   22.8759  -33.3912 C   0  0  0  0  0  0  0  0  0  0  0  0
  -26.2954   22.4801  -32.2025 C   0  0  0  0  0  0  0  0  0  0  0  0
  -27.3605   22.0653  -31.2620 C   0  0  0  0  0  0  0  0  0  0  0  0
  -28.6225   21.7030  -31.7013 C   0  0  0  0  0  0  0  0  0  0  0  0
  -29.6688   21.3974  -30.8518 C   0  0  0  0  0  0  0  0  0  0  0  0
  -29.4891   21.4430  -29.4857 C   0  0  0  0  0  0  0  0  0  0  0  0
  -28.2438   21.8010  -29.0414 C   0  0  0  0  0  0  0  0  0  0  0  0
  -27.1831   22.1121  -29.9094 C   0  0  0  0  0  0  0  0  0  0  0  0
  -24.9376   22.4928  -31.6969 C   0  0  0  0  0  0  0  0  0  0  0  0
  -24.5425   21.5276  -30.7619 C   0  0  0  0  0  0  0  0  0  0  0  0
  -23.3143   21.5037  -30.1579 C   0  0  0  0  0  0  0  0  0  0  0  0
  -22.3829   22.4664  -30.4605 C   0  0  0  0  0  0  0  0  0  0  0  0
  -22.7299   23.4274  -31.3700 C   0  0  0  0  0  0  0  0  0  0  0  0
  -23.9857   23.4436  -31.9792 C   0  0  0  0  0  0  0  0  0  0  0  0
  -25.4471   26.7473  -35.8249 C   0  0  0  0  0  0  0  0  0  0  0  0
  2  3  2  0
  3  4  1  0
  3  5  1  0
  5  6  1  0
  6  7  1  0
  7  8  1  0
  8  9  1  0
  9 10  1  0
 10 11  1  0
 11 12  1  0
 12 13  2  3
 13 14  1  0
 14 15  2  0
 15 16  1  0
 16 17  2  0
 17 18  1  0
 18 19  2  0
 13 20  1  0
 20 21  2  0
 21 22  1  0
 22 23  2  0
 23 24  1  0
 24 25  2  0
  9 26  1  0
 26  5  1  0
 19 14  1  0
 25 20  1  0
M  END
$$$$
