
     RDKit          3D

 18 19  0  0  0  0  0  0  0  0999 V2000
  -16.7132   37.8348  -23.1636 O   0  0  0  0  0  0  0  0  0  0  0  0
  -17.8606   37.7298  -22.6870 C   0  0  0  0  0  0  0  0  0  0  0  0
  -18.5723   36.4412  -22.8475 C   0  0  0  0  0  0  0  0  0  0  0  0
  -18.0109   35.3764  -21.9935 C   0  0  0  0  0  0  0  0  0  0  0  0
  -16.9921   35.6221  -21.3141 O   0  0  0  0  0  0  0  0  0  0  0  0
  -18.6591   34.0781  -21.9694 C   0  0  0  0  0  0  0  0  0  0  0  0
  -17.9525   32.9251  -21.7017 C   0  0  0  0  0  0  0  0  0  0  0  0
  -18.5613   31.6881  -21.6771 C   0  0  0  0  0  0  0  0  0  0  0  0
  -19.9060   31.5634  -21.9211 C   0  0  0  0  0  0  0  0  0  0  0  0
  -20.6420   32.6871  -22.1911 C   0  0  0  0  0  0  0  0  0  0  0  0
  -20.0084   33.9194  -22.2105 C   0  0  0  0  0  0  0  0  0  0  0  0
  -18.5049   38.7867  -22.0036 N   0  0  0  0  0  0  0  0  0  0  0  0
  -18.0935   40.1232  -22.0334 C   0  0  0  0  0  0  0  0  0  0  0  0
  -17.7963   40.7471  -20.8264 C   0  0  0  0  0  0  0  0  0  0  0  0
  -17.3874   42.0468  -20.7521 C   0  0  0  0  0  0  0  0  0  0  0  0
  -17.2618   42.7733  -21.9054 C   0  0  0  0  0  0  0  0  0  0  0  0
  -17.5469   42.1768  -23.0689 N   0  0  0  0  0  0  0  0  0  0  0  0
  -17.9582   40.8737  -23.1594 C   0  0  0  0  0  0  0  0  0  0  0  0
  1  2  2  0
  2  3  1  0
  3  4  1  0
  4  5  2  0
  4  6  1  0
  6  7  2  0
  7  8  1  0
  8  9  2  0
  9 10  1  0
 10 11  2  0
  2 12  1  0
 12 13  1  0
 13 14  2  0
 14 15  1  0
 15 16  2  0
 16 17  1  0
 17 18  2  0
 11  6  1  0
 18 13  1  0
M  END
$$$$
