
     RDKit          3D

 31 33  0  0  0  0  0  0  0  0999 V2000
  -30.3130   21.4529  -32.4822 C   0  0  0  0  0  0  0  0  0  0  0  0
  -29.3737   20.5146  -32.0255 O   0  0  0  0  0  0  0  0  0  0  0  0
  -29.0945   20.4318  -30.6696 C   0  0  0  0  0  0  0  0  0  0  0  0
  -29.8675   19.8190  -29.7786 N   0  0  0  0  0  0  0  0  0  0  0  0
  -29.6432   19.7117  -28.4685 C   0  0  0  0  0  0  0  0  0  0  0  0
  -30.4454   19.0748  -27.5512 O   0  0  0  0  0  0  0  0  0  0  0  0
  -29.9162   18.2076  -26.5812 C   0  0  0  0  0  0  0  0  0  0  0  0
  -30.9034   17.1269  -26.3382 C   0  0  0  0  0  0  0  0  0  0  0  0
  -32.1638   17.2509  -26.8678 C   0  0  0  0  0  0  0  0  0  0  0  0
  -33.0880   16.2394  -26.6464 C   0  0  0  0  0  0  0  0  0  0  0  0
  -32.7704   15.1189  -25.9107 C   0  0  0  0  0  0  0  0  0  0  0  0
  -31.4795   15.0065  -25.3771 C   0  0  0  0  0  0  0  0  0  0  0  0
  -31.1185   13.8316  -24.6005 C   0  0  0  0  0  0  0  0  0  0  0  0
  -31.8147   13.5029  -23.4428 C   0  0  0  0  0  0  0  0  0  0  0  0
  -31.5301   12.3995  -22.6683 C   0  0  0  0  0  0  0  0  0  0  0  0
  -30.5017   11.5542  -23.0366 C   0  0  0  0  0  0  0  0  0  0  0  0
  -29.7900   11.8542  -24.1840 C   0  0  0  0  0  0  0  0  0  0  0  0
  -30.0899   12.9633  -24.9464 C   0  0  0  0  0  0  0  0  0  0  0  0
  -30.5574   15.9950  -25.5865 C   0  0  0  0  0  0  0  0  0  0  0  0
  -29.2010   15.8708  -25.0125 C   0  0  0  0  0  0  0  0  0  0  0  0
  -28.4803   20.3030  -27.9917 C   0  0  0  0  0  0  0  0  0  0  0  0
  -27.6295   20.9529  -28.8337 C   0  0  0  0  0  0  0  0  0  0  0  0
  -27.9261   21.0243  -30.1769 C   0  0  0  0  0  0  0  0  0  0  0  0
  -27.0475   21.7043  -31.1744 C   0  0  0  0  0  0  0  0  0  0  0  0
  -26.2743   22.7049  -30.4144 N   0  0  0  0  0  0  0  0  0  0  0  0
  -25.1573   23.1646  -31.1703 C   0  0  0  0  0  0  0  0  0  0  0  0
  -25.4229   24.2061  -32.2027 C   0  0  0  0  0  0  0  0  0  0  0  0
  -24.6148   25.3798  -32.1520 N   0  0  0  0  0  0  0  0  0  0  0  0
  -23.2250   25.3794  -32.3113 C   0  0  0  0  0  0  0  0  0  0  0  0
  -22.4601   26.6677  -32.1972 C   0  0  0  0  0  0  0  0  0  0  0  0
  -22.5803   24.3626  -32.5442 O   0  0  0  0  0  0  0  0  0  0  0  0
  1  2  1  0
  2  3  1  0
  3  4  2  0
  4  5  1  0
  5  6  1  0
  6  7  1  0
  7  8  1  0
  8  9  2  0
  9 10  1  0
 10 11  2  0
 11 12  1  0
 12 13  1  0
 13 14  2  0
 14 15  1  0
 15 16  2  0
 16 17  1  0
 17 18  2  0
 12 19  2  0
 19 20  1  0
  5 21  2  0
 21 22  1  0
 22 23  2  0
 23 24  1  0
 24 25  1  0
 25 26  1  0
 26 27  1  0
 27 28  1  0
 28 29  1  0
 29 30  1  0
 29 31  2  0
 23  3  1  0
 19  8  1  0
 18 13  1  0
M  END
$$$$
