
     RDKit          3D

 21 22  0  0  0  0  0  0  0  0999 V2000
  -13.0843   43.7136  -18.3958 O   0  0  0  0  0  0  0  0  0  0  0  0
  -14.0068   43.0080  -17.9176 C   0  0  0  0  0  0  0  0  0  0  0  0
  -15.1094   42.4958  -18.7627 C   0  0  0  0  0  0  0  0  0  0  0  0
  -15.5508   43.2641  -19.7322 C   0  0  0  0  0  0  0  0  0  0  0  0
  -16.5952   42.8460  -20.6892 C   0  0  0  0  0  0  0  0  0  0  0  0
  -17.6514   42.0389  -20.3446 C   0  0  0  0  0  0  0  0  0  0  0  0
  -18.6130   41.6676  -21.2723 C   0  0  0  0  0  0  0  0  0  0  0  0
  -18.5008   42.1238  -22.5736 C   0  0  0  0  0  0  0  0  0  0  0  0
  -19.4826   41.7369  -23.4939 O   0  0  0  0  0  0  0  0  0  0  0  0
  -17.4561   42.9360  -22.9619 C   0  0  0  0  0  0  0  0  0  0  0  0
  -17.4062   43.3531  -24.2720 O   0  0  0  0  0  0  0  0  0  0  0  0
  -16.5293   43.2765  -22.0087 C   0  0  0  0  0  0  0  0  0  0  0  0
  -13.9516   42.7270  -16.5632 O   0  0  0  0  0  0  0  0  0  0  0  0
  -13.1192   43.4298  -15.6677 C   0  0  0  0  0  0  0  0  0  0  0  0
  -12.9358   42.7601  -14.3481 C   0  0  0  0  0  0  0  0  0  0  0  0
  -11.5311   42.9984  -13.9134 C   0  0  0  0  0  0  0  0  0  0  0  0
  -10.6762   41.9612  -13.6017 C   0  0  0  0  0  0  0  0  0  0  0  0
   -9.3862   42.2441  -13.2054 C   0  0  0  0  0  0  0  0  0  0  0  0
   -8.9021   43.5300  -13.1039 C   0  0  0  0  0  0  0  0  0  0  0  0
   -9.7642   44.5547  -13.4174 C   0  0  0  0  0  0  0  0  0  0  0  0
  -11.0616   44.2922  -13.8169 C   0  0  0  0  0  0  0  0  0  0  0  0
  1  2  2  0
  2  3  1  0
  3  4  2  0
  4  5  1  0
  5  6  2  0
  6  7  1  0
  7  8  2  0
  8  9  1  0
  8 10  1  0
 10 11  1  0
 10 12  2  0
  2 13  1  0
 13 14  1  0
 14 15  1  0
 15 16  1  0
 16 17  2  0
 17 18  1  0
 18 19  2  0
 19 20  1  0
 20 21  2  0
 12  5  1  0
 21 16  1  0
M  END
$$$$
