
     RDKit          3D

 31 34  0  0  0  0  0  0  0  0999 V2000
  -14.9508   19.5286  -32.0335 C   0  0  0  0  0  0  0  0  0  0  0  0
  -16.3686   19.6933  -32.4420 C   0  0  0  0  0  0  0  0  0  0  0  0
  -16.6765   19.6048  -33.7804 C   0  0  0  0  0  0  0  0  0  0  0  0
  -17.9765   19.7507  -34.2027 C   0  0  0  0  0  0  0  0  0  0  0  0
  -19.0440   19.9924  -33.3244 C   0  0  0  0  0  0  0  0  0  0  0  0
  -20.3596   20.1260  -33.9185 C   0  0  0  0  0  0  0  0  0  0  0  0
  -21.3657   19.1803  -33.6030 N   0  0  0  0  0  0  0  0  0  0  0  0
  -21.6464   18.0526  -34.2628 C   0  0  0  0  0  0  0  0  0  0  0  0
  -21.1085   17.4978  -35.5293 C   0  0  0  0  0  0  0  0  0  0  0  0
  -19.8084   16.9446  -35.4525 N   0  0  0  0  0  0  0  0  0  0  0  0
  -19.5830   15.7941  -34.6826 C   0  0  0  0  0  0  0  0  0  0  0  0
  -19.2434   16.8361  -36.7709 C   0  0  0  0  0  0  0  0  0  0  0  0
  -19.7206   17.8625  -37.7060 C   0  0  0  0  0  0  0  0  0  0  0  0
  -20.5789   18.8794  -37.3493 C   0  0  0  0  0  0  0  0  0  0  0  0
  -21.0329   19.8467  -38.2451 C   0  0  0  0  0  0  0  0  0  0  0  0
  -20.6001   19.7805  -39.5524 C   0  0  0  0  0  0  0  0  0  0  0  0
  -19.7483   18.7786  -39.9242 C   0  0  0  0  0  0  0  0  0  0  0  0
  -19.3046   17.8294  -39.0390 C   0  0  0  0  0  0  0  0  0  0  0  0
  -22.6304   17.4048  -33.5966 N   0  0  0  0  0  0  0  0  0  0  0  0
  -23.0049   18.0880  -32.5071 C   0  0  0  0  0  0  0  0  0  0  0  0
  -22.1981   19.2177  -32.5135 C   0  0  0  0  0  0  0  0  0  0  0  0
  -22.3555   20.1212  -31.4824 C   0  0  0  0  0  0  0  0  0  0  0  0
  -21.6714   21.1707  -31.3969 O   0  0  0  0  0  0  0  0  0  0  0  0
  -23.2909   19.8367  -30.5395 N   0  0  0  0  0  0  0  0  0  0  0  0
  -23.4395   20.8009  -29.4653 C   0  0  0  0  0  0  0  0  0  0  0  0
  -24.0513   18.7281  -30.5762 C   0  0  0  0  0  0  0  0  0  0  0  0
  -24.9214   18.4837  -29.6815 O   0  0  0  0  0  0  0  0  0  0  0  0
  -23.9242   17.8314  -31.5597 N   0  0  0  0  0  0  0  0  0  0  0  0
  -24.7568   16.6443  -31.5748 C   0  0  0  0  0  0  0  0  0  0  0  0
  -18.6938   20.0730  -32.0054 C   0  0  0  0  0  0  0  0  0  0  0  0
  -17.3879   19.9274  -31.5703 C   0  0  0  0  0  0  0  0  0  0  0  0
  1  2  1  0
  2  3  2  0
  3  4  1  0
  4  5  2  0
  5  6  1  0
  6  7  1  0
  7  8  1  0
  8  9  1  0
  9 10  1  0
 10 11  1  0
 10 12  1  0
 12 13  1  0
 13 14  2  0
 14 15  1  0
 15 16  2  0
 16 17  1  0
 17 18  2  0
  8 19  2  0
 19 20  1  0
 20 21  2  0
 21 22  1  0
 22 23  2  0
 22 24  1  0
 24 25  1  0
 24 26  1  0
 26 27  2  0
 26 28  1  0
 28 29  1  0
  5 30  1  0
 30 31  2  0
 31  2  1  0
 21  7  1  0
 18 13  1  0
 28 20  1  0
M  END
$$$$
