
     RDKit          3D

 28 31  0  0  0  0  0  0  0  0999 V2000
   -7.4954    2.3986  -32.0513 C   0  0  0  0  0  0  0  0  0  0  0  0
   -8.1991    1.3675  -32.9062 C   0  0  0  0  0  0  0  0  0  0  0  0
   -8.7282    2.0389  -34.1276 C   0  0  0  0  0  0  0  0  0  0  0  0
   -9.2679    0.7336  -32.0529 C   0  0  0  0  0  0  0  0  0  0  0  0
  -10.6279    1.4164  -32.3014 C   0  0  0  0  0  0  0  0  0  0  0  0
  -11.6203    0.7052  -31.4245 C   0  0  0  0  0  0  0  0  0  0  0  0
  -13.0256    0.7523  -31.8186 C   0  0  1  0  0  0  0  0  0  0  0  0
  -13.2768    2.1394  -32.4521 C   0  0  0  0  0  0  0  0  0  0  0  0
  -13.7404   -0.2949  -32.4908 C   0  0  1  0  0  0  0  0  0  0  0  0
  -13.4510   -1.7225  -32.3880 C   0  0  0  0  0  0  0  0  0  0  0  0
  -14.7219   -2.4694  -32.8556 C   0  0  0  0  0  0  0  0  0  0  0  0
  -15.5787   -1.3698  -33.3326 C   0  0  1  0  0  0  0  0  0  0  0  0
  -17.0255   -1.6103  -33.4594 C   0  0  2  0  0  0  0  0  0  0  0  0
  -17.3085   -2.7076  -34.4650 C   0  0  0  0  0  0  0  0  0  0  0  0
  -18.7894   -3.0111  -34.3770 C   0  0  0  0  0  0  0  0  0  0  0  0
  -19.5325   -1.7589  -34.7402 C   0  0  0  0  0  0  0  0  0  0  0  0
  -20.5605   -1.8952  -35.5599 C   0  0  0  0  0  0  0  0  0  0  0  0
  -21.3429   -0.7522  -35.9720 C   0  0  0  0  0  0  0  0  0  0  0  0
  -22.2918   -0.9270  -36.8015 O   0  0  0  0  0  0  0  0  0  0  0  0
  -21.0394    0.5797  -35.4369 C   0  0  0  0  0  0  0  0  0  0  0  0
  -19.5506    0.6417  -35.1663 C   0  0  0  0  0  0  0  0  0  0  0  0
  -19.1211   -0.4459  -34.1986 C   0  0  1  0  0  0  0  0  0  0  0  0
  -19.8886   -0.2309  -32.9022 C   0  0  0  0  0  0  0  0  0  0  0  0
  -17.6384   -0.3088  -33.9967 C   0  0  1  0  0  0  0  0  0  0  0  0
  -17.3344    0.8363  -33.0857 C   0  0  0  0  0  0  0  0  0  0  0  0
  -15.8694    0.9947  -32.8378 C   0  0  0  0  0  0  0  0  0  0  0  0
  -15.2842   -0.2654  -32.3047 C   0  0  2  0  0  0  0  0  0  0  0  0
  -15.6733   -0.6383  -30.9219 C   0  0  0  0  0  0  0  0  0  0  0  0
  1  2  1  0
  2  3  1  0
  2  4  1  0
  4  5  1  0
  5  6  1  0
  6  7  1  0
  7  8  1  6
  7  9  1  0
  9 10  1  1
 10 11  1  0
 12 11  1  1
 12 13  1  0
 13 14  1  6
 14 15  1  0
 15 16  1  0
 16 17  2  0
 17 18  1  0
 18 19  2  0
 18 20  1  0
 20 21  1  0
 21 22  1  0
 22 23  1  1
 22 24  1  0
 24 25  1  1
 25 26  1  0
 26 27  1  0
 27 28  1  1
 27  9  1  0
 27 12  1  0
 24 13  1  0
 22 16  1  0
M  END
$$$$
