
     RDKit          3D

 41 45  0  0  0  0  0  0  0  0999 V2000
  -17.8089   48.0703  -21.1551 C   0  0  0  0  0  0  0  0  0  0  0  0
  -18.3665   46.8203  -21.6663 N   0  0  0  0  0  0  0  0  0  0  0  0
  -17.9044   46.2599  -22.8853 C   0  0  0  0  0  0  0  0  0  0  0  0
  -17.0362   46.9241  -23.4938 O   0  0  0  0  0  0  0  0  0  0  0  0
  -18.3736   45.0080  -23.4299 C   0  0  0  0  0  0  0  0  0  0  0  0
  -18.9769   45.0082  -24.6772 C   0  0  0  0  0  0  0  0  0  0  0  0
  -19.3646   43.8255  -25.2615 C   0  0  0  0  0  0  0  0  0  0  0  0
  -19.1729   42.6144  -24.6424 C   0  0  0  0  0  0  0  0  0  0  0  0
  -18.5847   42.5959  -23.4199 C   0  0  0  0  0  0  0  0  0  0  0  0
  -18.1871   43.7999  -22.8159 C   0  0  0  0  0  0  0  0  0  0  0  0
  -17.5761   43.7506  -21.5330 N   0  0  0  0  0  0  0  0  0  0  0  0
  -17.2226   42.4910  -20.9597 C   0  0  0  0  0  0  0  0  0  0  0  0
  -18.0215   41.4277  -21.0002 N   0  0  0  0  0  0  0  0  0  0  0  0
  -17.6959   40.2104  -20.4499 C   0  0  0  0  0  0  0  0  0  0  0  0
  -18.6398   39.1773  -20.5797 N   0  0  0  0  0  0  0  0  0  0  0  0
  -19.4234   38.9690  -21.7371 C   0  0  0  0  0  0  0  0  0  0  0  0
  -20.3853   39.8516  -22.1790 C   0  0  0  0  0  0  0  0  0  0  0  0
  -21.1106   39.5658  -23.3505 C   0  0  0  0  0  0  0  0  0  0  0  0
  -20.8717   38.4112  -24.0655 C   0  0  0  0  0  0  0  0  0  0  0  0
  -19.9053   37.5506  -23.5983 C   0  0  0  0  0  0  0  0  0  0  0  0
  -19.1737   37.7888  -22.4604 C   0  0  0  0  0  0  0  0  0  0  0  0
  -18.2207   36.9280  -22.0100 O   0  0  0  0  0  0  0  0  0  0  0  0
  -18.4345   35.6839  -21.4000 C   0  0  0  0  0  0  0  0  0  0  0  0
  -19.4884   36.2692  -24.1998 C   0  0  0  0  0  0  0  0  0  0  0  0
  -18.8981   36.5097  -25.5729 C   0  0  0  0  0  0  0  0  0  0  0  0
  -19.5983   37.7193  -26.1577 C   0  0  0  0  0  0  0  0  0  0  0  0
  -21.0732   37.4174  -26.2682 C   0  0  2  0  0  0  0  0  0  0  0  0
  -21.6293   37.6205  -27.5329 N   0  0  0  0  0  0  0  0  0  0  0  0
  -22.2178   38.8665  -27.8426 C   0  0  0  0  0  0  0  0  0  0  0  0
  -23.5625   38.5866  -28.4635 C   0  0  0  0  0  0  0  0  0  0  0  0
  -23.5877   37.3682  -29.1920 N   0  0  0  0  0  0  0  0  0  0  0  0
  -24.5531   37.3687  -30.2653 C   0  0  0  0  0  0  0  0  0  0  0  0
  -25.0485   38.7402  -30.5875 C   0  0  0  0  0  0  0  0  0  0  0  0
  -26.0559   38.6597  -31.5852 O   0  0  0  0  0  0  0  0  0  0  0  0
  -22.3704   36.8073  -29.6311 C   0  0  0  0  0  0  0  0  0  0  0  0
  -21.2344   36.8468  -28.6292 C   0  0  0  0  0  0  0  0  0  0  0  0
  -21.7660   38.3332  -25.2761 C   0  0  0  0  0  0  0  0  0  0  0  0
  -16.5154   40.1632  -19.8666 N   0  0  0  0  0  0  0  0  0  0  0  0
  -15.6423   41.1884  -19.7780 C   0  0  0  0  0  0  0  0  0  0  0  0
  -15.9880   42.3990  -20.3359 C   0  0  0  0  0  0  0  0  0  0  0  0
  -14.9207   43.7841  -20.2701 Cl  0  0  0  0  0  0  0  0  0  0  0  0
  1  2  1  0
  2  3  1  0
  3  4  2  0
  3  5  1  0
  5  6  2  0
  6  7  1  0
  7  8  2  0
  8  9  1  0
  9 10  2  0
 10 11  1  0
 11 12  1  0
 12 13  2  0
 13 14  1  0
 14 15  1  0
 15 16  1  0
 16 17  2  0
 17 18  1  0
 18 19  2  0
 19 20  1  0
 20 21  2  0
 21 22  1  0
 22 23  1  0
 20 24  1  0
 24 25  1  0
 25 26  1  0
 26 27  1  0
 27 28  1  6
 28 29  1  0
 29 30  1  0
 30 31  1  0
 31 32  1  0
 32 33  1  0
 33 34  1  0
 31 35  1  0
 35 36  1  0
 27 37  1  0
 14 38  2  0
 38 39  1  0
 39 40  2  0
 40 41  1  0
 10  5  1  0
 40 12  1  0
 21 16  1  0
 36 28  1  0
 37 19  1  0
M  END
$$$$
