
     RDKit          3D

 38 41  0  0  0  0  0  0  0  0999 V2000
  -21.8194   -0.4816  -32.4961 Cl  0  0  0  0  0  0  0  0  0  0  0  0
  -21.8196   -0.4815  -32.4951 Cl  0  0  0  0  0  0  0  0  0  0  0  0
  -18.1469    2.7509  -34.3701 C   0  0  0  0  0  0  0  0  0  0  0  0
  -19.4693    2.9397  -34.0338 C   0  0  0  0  0  0  0  0  0  0  0  0
  -20.3898    2.0563  -34.5692 C   0  0  0  0  0  0  0  0  0  0  0  0
  -19.9925    1.0226  -35.4095 C   0  0  0  0  0  0  0  0  0  0  0  0
  -20.8886    0.1433  -35.9642 C   0  0  0  0  0  0  0  0  0  0  0  0
  -22.2576    0.1747  -35.6477 N   0  0  0  0  0  0  0  0  0  0  0  0
  -22.8386   -0.6631  -34.6322 C   0  0  0  0  0  0  0  0  0  0  0  0
  -22.2370   -0.4151  -33.3016 C   0  0  0  0  0  0  0  0  0  0  0  0
  -22.8132   -1.3347  -32.2287 C   0  0  0  0  0  0  0  0  0  0  0  0
  -24.2880   -1.1861  -32.0463 C   0  0  0  0  0  0  0  0  0  0  0  0
  -24.7472   -2.1135  -30.9796 C   0  0  0  0  0  0  0  0  0  0  0  0
  -24.1651   -1.8943  -29.6217 C   0  0  0  0  0  0  0  0  0  0  0  0
  -24.4716   -0.5918  -29.0714 N   0  0  0  0  0  0  0  0  0  0  0  0
  -24.0101   -0.3119  -27.7562 C   0  0  0  0  0  0  0  0  0  0  0  0
  -22.7929    0.2717  -27.5087 C   0  0  0  0  0  0  0  0  0  0  0  0
  -22.3528    0.5235  -26.2130 C   0  0  0  0  0  0  0  0  0  0  0  0
  -23.1342    0.1892  -25.1963 N   0  0  0  0  0  0  0  0  0  0  0  0
  -24.3447   -0.3900  -25.4190 C   0  0  0  0  0  0  0  0  0  0  0  0
  -25.1501   -0.7335  -24.3347 C   0  0  0  0  0  0  0  0  0  0  0  0
  -26.3786   -1.3205  -24.5235 C   0  0  0  0  0  0  0  0  0  0  0  0
  -26.8107   -1.5683  -25.8045 C   0  0  0  0  0  0  0  0  0  0  0  0
  -26.0507   -1.2467  -26.9040 C   0  0  0  0  0  0  0  0  0  0  0  0
  -24.8039   -0.6501  -26.6852 C   0  0  0  0  0  0  0  0  0  0  0  0
  -21.0126    1.1562  -26.1098 C   0  0  0  0  0  0  0  0  0  0  0  0
  -19.9926    0.4290  -26.9580 C   0  0  0  0  0  0  0  0  0  0  0  0
  -20.5165    0.0743  -28.3328 C   0  0  0  0  0  0  0  0  0  0  0  0
  -21.8724    0.6845  -28.5900 C   0  0  0  0  0  0  0  0  0  0  0  0
  -20.4313   -0.8698  -36.8241 C   0  0  0  0  0  0  0  0  0  0  0  0
  -19.0970   -1.0082  -37.1268 C   0  0  0  0  0  0  0  0  0  0  0  0
  -18.2513   -0.1329  -36.5644 N   0  0  0  0  0  0  0  0  0  0  0  0
  -18.6530    0.8509  -35.7369 C   0  0  0  0  0  0  0  0  0  0  0  0
  -17.7394    1.7301  -35.2039 C   0  0  0  0  0  0  0  0  0  0  0  0
  -18.6855   -2.1002  -38.0416 C   0  0  0  0  0  0  0  0  0  0  0  0
  -19.6036   -2.0674  -39.2324 C   0  0  0  0  0  0  0  0  0  0  0  0
  -21.0504   -1.9223  -38.9068 C   0  0  0  0  0  0  0  0  0  0  0  0
  -21.3719   -1.8365  -37.4438 C   0  0  0  0  0  0  0  0  0  0  0  0
  3  4  2  0
  4  5  1  0
  5  6  2  0
  6  7  1  0
  7  8  1  0
  8  9  1  0
  9 10  1  0
 10 11  1  0
 11 12  1  0
 12 13  1  0
 13 14  1  0
 14 15  1  0
 15 16  1  0
 16 17  2  0
 17 18  1  0
 18 19  2  0
 19 20  1  0
 20 21  2  0
 21 22  1  0
 22 23  2  0
 23 24  1  0
 24 25  2  0
 18 26  1  0
 26 27  1  0
 27 28  1  0
 28 29  1  0
  7 30  2  0
 30 31  1  0
 31 32  2  0
 32 33  1  0
 33 34  2  0
 31 35  1  0
 35 36  1  0
 36 37  1  0
 37 38  1  0
 34  3  1  0
 33  6  1  0
 25 16  1  0
 38 30  1  0
 29 17  1  0
 25 20  1  0
M  END
$$$$
