
     RDKit          3D

 10 10  0  0  0  0  0  0  0  0999 V2000
  -18.3885   35.3379  -23.6139 O   0  0  0  0  0  0  0  0  0  0  0  0
  -18.9471   36.1822  -22.8892 C   0  0  0  0  0  0  0  0  0  0  0  0
  -20.1830   35.8605  -22.1612 C   0  0  0  0  0  0  0  0  0  0  0  0
  -20.6457   34.1801  -22.5036 Cl  0  0  0  0  0  0  0  0  0  0  0  0
  -18.3750   37.5060  -22.7565 C   0  0  0  0  0  0  0  0  0  0  0  0
  -18.1192   38.0579  -21.4983 C   0  0  0  0  0  0  0  0  0  0  0  0
  -17.5728   39.3073  -21.3339 C   0  0  0  0  0  0  0  0  0  0  0  0
  -17.2745   40.0255  -22.4817 C   0  0  0  0  0  0  0  0  0  0  0  0
  -17.5232   39.4859  -23.7088 C   0  0  0  0  0  0  0  0  0  0  0  0
  -18.0710   38.2325  -23.8741 C   0  0  0  0  0  0  0  0  0  0  0  0
  1  2  2  0
  2  3  1  0
  3  4  1  0
  2  5  1  0
  5  6  2  0
  6  7  1  0
  7  8  2  0
  8  9  1  0
  9 10  2  0
 10  5  1  0
M  END
$$$$
