
     RDKit          3D

 29 28  0  0  0  0  0  0  0  0999 V2000
  -18.6788   31.3121  -22.4368 C   0  0  0  0  0  0  0  0  0  0  0  0
  -18.5366   32.3831  -21.3571 C   0  0  1  0  0  0  0  0  0  0  0  0
  -17.4568   31.9948  -20.5611 O   0  0  0  0  0  0  0  0  0  0  0  0
  -18.2456   33.7346  -21.9702 C   0  0  1  0  0  0  0  0  0  0  0  0
  -19.3483   34.1252  -22.8754 C   0  0  0  0  0  0  0  0  0  0  0  0
  -20.0347   33.5279  -23.7177 O   0  0  0  0  0  0  0  0  0  0  0  0
  -19.2504   35.4262  -22.3516 N   0  0  0  0  0  0  0  0  0  0  0  0
  -19.3084   36.8730  -22.1496 C   0  0  0  0  0  0  0  0  0  0  0  0
  -20.3521   37.6579  -22.7800 C   0  0  0  0  0  0  0  0  0  0  0  0
  -21.1829   37.0971  -23.5787 O   0  0  0  0  0  0  0  0  0  0  0  0
  -20.5567   38.9963  -22.6021 O   0  0  0  0  0  0  0  0  0  0  0  0
  -18.3719   37.2721  -21.3365 C   0  0  0  0  0  0  0  0  0  0  0  0
  -17.8911   38.8126  -20.6979 S   0  0  0  0  0  0  0  0  0  0  0  0
  -18.3414   40.3361  -21.3843 C   0  0  2  0  0  0  0  0  0  0  0  0
  -17.7756   40.6366  -22.7576 C   0  0  0  0  0  0  0  0  0  0  0  0
  -17.6817   42.0815  -22.8444 N   0  0  0  0  0  0  0  0  0  0  0  0
  -17.5975   42.5869  -21.5138 C   0  0  2  0  0  0  0  0  0  0  0  0
  -16.4609   43.5200  -21.4149 C   0  0  0  0  0  0  0  0  0  0  0  0
  -15.7694   43.7366  -22.4421 O   0  0  0  0  0  0  0  0  0  0  0  0
  -16.1073   44.1887  -20.2112 N   0  0  0  0  0  0  0  0  0  0  0  0
  -16.8551   43.9958  -18.9764 C   0  0  0  0  0  0  0  0  0  0  0  0
  -14.9813   45.0902  -20.1782 C   0  0  0  0  0  0  0  0  0  0  0  0
  -17.4902   41.4174  -20.5931 C   0  0  0  0  0  0  0  0  0  0  0  0
  -17.6526   35.9774  -20.8678 C   0  0  2  0  0  0  0  0  0  0  0  0
  -16.3859   35.8741  -21.6431 C   0  0  0  0  0  0  0  0  0  0  0  0
  -18.6474   34.9067  -21.1066 C   0  0  2  0  0  0  0  0  0  0  0  0
  -17.9283   38.4128  -21.1618 O   0  0  0  0  0  0  0  0  0  0  0  0
  -17.9198   38.4162  -21.1810 O   0  0  0  0  0  0  0  0  0  0  0  0
  -17.9339   38.4170  -21.1452 O   0  0  0  0  0  0  0  0  0  0  0  0
  2  1  1  6
  2  3  1  0
  2  4  1  0
  4  5  1  6
  5  6  2  0
  5  7  1  0
  7  8  1  0
  8  9  1  0
  9 10  2  0
  9 11  1  0
  8 12  2  0
 12 13  1  0
 14 13  1  1
 14 15  1  0
 15 16  1  0
 16 17  1  0
 17 18  1  6
 18 19  2  0
 18 20  1  0
 20 21  1  0
 20 22  1  0
 17 23  1  0
 12 24  1  0
 24 25  1  6
 24 26  1  0
 26  4  1  0
 26  7  1  6
 23 14  1  0
M  END
$$$$
