
     RDKit          3D

 12 12  0  0  0  0  0  0  0  0999 V2000
  -16.0859   37.6676  -21.8530 O   0  0  0  0  0  0  0  0  0  0  0  0
  -17.2714   37.9214  -22.1310 C   0  0  0  0  0  0  0  0  0  0  0  0
  -17.6101   39.2548  -22.3151 O   0  0  0  0  0  0  0  0  0  0  0  0
  -18.3049   36.9019  -22.2703 C   0  0  0  0  0  0  0  0  0  0  0  0
  -19.6202   37.2604  -22.4660 C   0  0  0  0  0  0  0  0  0  0  0  0
  -20.6307   36.3330  -22.6029 C   0  0  0  0  0  0  0  0  0  0  0  0
  -20.2743   35.0323  -22.5365 N   0  0  0  0  0  0  0  0  0  0  0  0
  -19.0363   34.5824  -22.3511 C   0  0  0  0  0  0  0  0  0  0  0  0
  -18.6897   33.1690  -22.2848 C   0  0  0  0  0  0  0  0  0  0  0  0
  -19.5983   32.3081  -22.2678 O   0  0  0  0  0  0  0  0  0  0  0  0
  -17.3841   32.7192  -22.2387 O   0  0  0  0  0  0  0  0  0  0  0  0
  -18.0326   35.5496  -22.2155 C   0  0  0  0  0  0  0  0  0  0  0  0
  1  2  2  0
  2  3  1  0
  2  4  1  0
  4  5  2  0
  5  6  1  0
  6  7  2  0
  7  8  1  0
  8  9  1  0
  9 10  2  0
  9 11  1  0
  8 12  2  0
 12  4  1  0
M  END
$$$$
