
     RDKit          3D

 31 33  0  0  0  0  0  0  0  0999 V2000
  -21.4069   46.4513  -22.8953 C   0  0  0  0  0  0  0  0  0  0  0  0
  -21.9003   45.0562  -23.2517 C   0  0  0  0  0  0  0  0  0  0  0  0
  -20.8704   44.4358  -24.0309 O   0  0  0  0  0  0  0  0  0  0  0  0
  -20.0031   43.5889  -23.3570 C   0  0  0  0  0  0  0  0  0  0  0  0
  -20.1894   43.3257  -22.1481 O   0  0  0  0  0  0  0  0  0  0  0  0
  -18.8379   42.9842  -24.0725 C   0  0  0  0  0  0  0  0  0  0  0  0
  -18.9062   43.3523  -25.5456 C   0  0  0  0  0  0  0  0  0  0  0  0
  -18.8345   41.6008  -23.9513 O   0  0  0  0  0  0  0  0  0  0  0  0
  -18.1593   40.8265  -23.0475 C   0  0  0  0  0  0  0  0  0  0  0  0
  -17.3884   41.3111  -22.0264 C   0  0  0  0  0  0  0  0  0  0  0  0
  -16.7249   40.4593  -21.1379 C   0  0  0  0  0  0  0  0  0  0  0  0
  -16.8315   39.0930  -21.2691 C   0  0  0  0  0  0  0  0  0  0  0  0
  -17.6164   38.5852  -22.3087 C   0  0  0  0  0  0  0  0  0  0  0  0
  -17.7350   37.2326  -22.4567 C   0  0  0  0  0  0  0  0  0  0  0  0
  -17.1352   36.4787  -21.6536 O   0  0  0  0  0  0  0  0  0  0  0  0
  -18.4688   36.6985  -23.4287 N   0  0  0  0  0  0  0  0  0  0  0  0
  -18.6189   35.2642  -23.6192 C   0  0  0  0  0  0  0  0  0  0  0  0
  -19.4451   34.6554  -22.5636 C   0  0  0  0  0  0  0  0  0  0  0  0
  -20.0338   35.3957  -21.7343 O   0  0  0  0  0  0  0  0  0  0  0  0
  -19.6125   33.2526  -22.4340 N   0  0  0  0  0  0  0  0  0  0  0  0
  -20.3120   32.6359  -21.3609 C   0  0  0  0  0  0  0  0  0  0  0  0
  -19.9632   31.3841  -20.8977 C   0  0  0  0  0  0  0  0  0  0  0  0
  -20.6489   30.7952  -19.8561 C   0  0  0  0  0  0  0  0  0  0  0  0
  -21.7108   31.4256  -19.2305 C   0  0  0  0  0  0  0  0  0  0  0  0
  -22.3576   30.7762  -18.1879 O   0  0  0  0  0  0  0  0  0  0  0  0
  -23.4903   31.3080  -17.5576 C   0  0  0  0  0  0  0  0  0  0  0  0
  -22.0681   32.6772  -19.6854 C   0  0  0  0  0  0  0  0  0  0  0  0
  -21.3773   33.2624  -20.7295 C   0  0  0  0  0  0  0  0  0  0  0  0
  -19.1018   37.5173  -24.2765 C   0  0  0  0  0  0  0  0  0  0  0  0
  -19.0217   38.8984  -24.1799 C   0  0  0  0  0  0  0  0  0  0  0  0
  -18.2596   39.4487  -23.1704 C   0  0  0  0  0  0  0  0  0  0  0  0
  1  2  1  0
  2  3  1  0
  3  4  1  0
  4  5  2  0
  4  6  1  0
  6  7  1  0
  6  8  1  0
  8  9  1  0
  9 10  2  0
 10 11  1  0
 11 12  2  0
 12 13  1  0
 13 14  1  0
 14 15  2  0
 14 16  1  0
 16 17  1  0
 17 18  1  0
 18 19  2  0
 18 20  1  0
 20 21  1  0
 21 22  2  0
 22 23  1  0
 23 24  2  0
 24 25  1  0
 25 26  1  0
 24 27  1  0
 27 28  2  0
 16 29  1  0
 29 30  2  0
 30 31  1  0
 31  9  1  0
 31 13  2  0
 28 21  1  0
M  END
$$$$
