
     RDKit          3D

 32 35  0  0  0  0  0  0  0  0999 V2000
  -20.3807   35.8800  -25.3745 C   0  0  0  0  0  0  0  0  0  0  0  0
  -18.9544   36.0564  -24.8404 C   0  0  0  0  0  0  0  0  0  0  0  0
  -19.0719   36.3859  -23.3618 C   0  0  0  0  0  0  0  0  0  0  0  0
  -17.7157   36.6180  -22.7507 C   0  0  0  0  0  0  0  0  0  0  0  0
  -17.7957   37.1637  -21.4279 N   0  0  0  0  0  0  0  0  0  0  0  0
  -17.8553   38.5970  -21.2986 C   0  0  0  0  0  0  0  0  0  0  0  0
  -17.4980   39.1726  -20.1273 N   0  0  0  0  0  0  0  0  0  0  0  0
  -17.5463   40.4916  -20.0093 C   0  0  0  0  0  0  0  0  0  0  0  0
  -17.9613   41.3354  -21.0710 C   0  0  0  0  0  0  0  0  0  0  0  0
  -17.5987   42.7466  -20.9106 C   0  0  0  0  0  0  0  0  0  0  0  0
  -17.0128   43.5419  -21.8646 C   0  0  0  0  0  0  0  0  0  0  0  0
  -16.5341   44.8190  -21.6108 C   0  0  0  0  0  0  0  0  0  0  0  0
  -16.6229   45.3689  -20.3528 C   0  0  0  0  0  0  0  0  0  0  0  0
  -16.1240   46.7213  -20.0484 C   0  0  0  0  0  0  0  0  0  0  0  0
  -17.1413   47.6141  -19.5530 N   0  0  0  0  0  0  0  0  0  0  0  0
  -18.2236   47.8172  -20.4770 C   0  0  0  0  0  0  0  0  0  0  0  0
  -19.2601   48.6729  -19.7767 C   0  0  0  0  0  0  0  0  0  0  0  0
  -18.6505   49.9296  -19.5742 O   0  0  0  0  0  0  0  0  0  0  0  0
  -17.6072   49.8331  -18.6708 C   0  0  0  0  0  0  0  0  0  0  0  0
  -16.5743   48.8178  -19.0296 C   0  0  0  0  0  0  0  0  0  0  0  0
  -17.2123   44.5512  -19.4126 C   0  0  0  0  0  0  0  0  0  0  0  0
  -17.6646   43.3239  -19.6898 N   0  0  0  0  0  0  0  0  0  0  0  0
  -18.3227   40.7420  -22.2174 C   0  0  0  0  0  0  0  0  0  0  0  0
  -19.0902   41.3758  -23.2092 N   0  0  0  0  0  0  0  0  0  0  0  0
  -19.7725   40.7856  -24.2804 C   0  0  1  0  0  0  0  0  0  0  0  0
  -21.2891   40.9303  -24.0186 C   0  0  0  0  0  0  0  0  0  0  0  0
  -21.9543   41.0285  -25.3605 C   0  0  0  0  0  0  0  0  0  0  0  0
  -21.7699   42.4857  -25.8170 C   0  0  2  0  0  0  0  0  0  0  0  0
  -21.8799   42.5475  -27.1960 O   0  0  0  0  0  0  0  0  0  0  0  0
  -20.3726   42.9206  -25.3796 C   0  0  0  0  0  0  0  0  0  0  0  0
  -19.4840   41.7217  -25.5253 C   0  0  0  0  0  0  0  0  0  0  0  0
  -18.2544   39.3559  -22.3096 N   0  0  0  0  0  0  0  0  0  0  0  0
  1  2  1  0
  2  3  1  0
  3  4  1  0
  4  5  1  0
  5  6  1  0
  6  7  2  0
  7  8  1  0
  8  9  2  0
  9 10  1  0
 10 11  2  0
 11 12  1  0
 12 13  2  0
 13 14  1  0
 14 15  1  0
 15 16  1  0
 16 17  1  0
 17 18  1  0
 18 19  1  0
 19 20  1  0
 13 21  1  0
 21 22  2  0
  9 23  1  0
 23 24  1  0
 25 24  1  1
 25 26  1  0
 26 27  1  0
 27 28  1  0
 28 29  1  6
 28 30  1  0
 30 31  1  0
 23 32  2  0
 32  6  1  0
 22 10  1  0
 31 25  1  0
 20 15  1  0
M  END
$$$$
