
     RDKit          3D

 25 27  0  0  0  0  0  0  0  0999 V2000
  -21.9241   17.9589  -32.0305 C   0  0  0  0  0  0  0  0  0  0  0  0
  -23.1613   17.7230  -31.2324 C   0  0  0  0  0  0  0  0  0  0  0  0
  -23.6728   18.7755  -30.4920 N   0  0  0  0  0  0  0  0  0  0  0  0
  -24.7283   18.6423  -29.7233 C   0  0  0  0  0  0  0  0  0  0  0  0
  -25.2408   19.6740  -28.9085 C   0  0  0  0  0  0  0  0  0  0  0  0
  -26.2776   19.5277  -28.0481 C   0  0  0  0  0  0  0  0  0  0  0  0
  -26.8920   18.2950  -27.9479 C   0  0  0  0  0  0  0  0  0  0  0  0
  -26.4261   17.2560  -28.7492 C   0  0  0  0  0  0  0  0  0  0  0  0
  -25.3674   17.4392  -29.6176 C   0  0  0  0  0  0  0  0  0  0  0  0
  -24.8874   16.4162  -30.3078 N   0  0  0  0  0  0  0  0  0  0  0  0
  -23.7953   16.4920  -31.1472 C   0  0  0  0  0  0  0  0  0  0  0  0
  -23.3053   15.0393  -31.9399 S   0  0  0  0  0  0  0  0  0  0  0  0
  -21.7218   14.6921  -32.5010 C   0  0  0  0  0  0  0  0  0  0  0  0
  -20.8570   15.8312  -32.9138 C   0  0  0  0  0  0  0  0  0  0  0  0
  -20.8764   16.4385  -33.8645 O   0  0  0  0  0  0  0  0  0  0  0  0
  -19.6961   16.1619  -31.6842 N   0  0  0  0  0  0  0  0  0  0  0  0
  -18.5193   15.7072  -32.4307 C   0  0  0  0  0  0  0  0  0  0  0  0
  -18.2905   15.7614  -33.5890 O   0  0  0  0  0  0  0  0  0  0  0  0
  -17.6396   15.1116  -31.4164 N   0  0  0  0  0  0  0  0  0  0  0  0
  -16.3125   14.8022  -31.4677 C   0  0  0  0  0  0  0  0  0  0  0  0
  -15.6583   14.9832  -32.7154 C   0  0  0  0  0  0  0  0  0  0  0  0
  -14.3517   14.5209  -32.8093 C   0  0  0  0  0  0  0  0  0  0  0  0
  -13.6856   13.8993  -31.7431 C   0  0  0  0  0  0  0  0  0  0  0  0
  -14.3808   13.7512  -30.5596 C   0  0  0  0  0  0  0  0  0  0  0  0
  -15.6772   14.2005  -30.4286 C   0  0  0  0  0  0  0  0  0  0  0  0
  1  2  1  0
  2  3  2  0
  3  4  1  0
  4  5  2  0
  5  6  1  0
  6  7  2  0
  7  8  1  0
  8  9  2  0
  9 10  1  0
 10 11  2  0
 11 12  1  0
 12 13  1  0
 13 14  1  0
 14 15  2  0
 14 16  1  0
 16 17  1  0
 17 18  2  0
 17 19  1  0
 19 20  1  0
 20 21  2  0
 21 22  1  0
 22 23  2  0
 23 24  1  0
 24 25  2  0
 11  2  1  0
 25 20  1  0
  9  4  1  0
M  END
$$$$
