
     RDKit          3D

 27 29  0  0  0  0  0  0  0  0999 V2000
  -21.4177   14.7117  -36.2035 C   0  0  0  0  0  0  0  0  0  0  0  0
  -22.1824   15.3627  -35.2254 O   0  0  0  0  0  0  0  0  0  0  0  0
  -22.2131   14.9069  -33.9209 C   0  0  0  0  0  0  0  0  0  0  0  0
  -21.9190   13.5956  -33.6308 C   0  0  0  0  0  0  0  0  0  0  0  0
  -21.9485   13.1320  -32.3196 C   0  0  0  0  0  0  0  0  0  0  0  0
  -21.6373   11.7530  -32.0266 C   0  0  0  0  0  0  0  0  0  0  0  0
  -21.4086   10.6581  -31.7977 N   0  0  0  0  0  0  0  0  0  0  0  0
  -22.2783   14.0132  -31.3171 C   0  0  0  0  0  0  0  0  0  0  0  0
  -22.5638   15.3075  -31.6440 C   0  0  0  0  0  0  0  0  0  0  0  0
  -22.5526   15.8244  -32.9125 C   0  0  0  0  0  0  0  0  0  0  0  0
  -22.8242   17.4741  -33.3622 S   0  0  0  0  0  6  0  0  0  0  0  0
  -23.3156   18.2774  -32.1562 O   0  0  0  0  0  0  0  0  0  0  0  0
  -23.9490   17.5639  -34.3983 O   0  0  0  0  0  0  0  0  0  0  0  0
  -21.4538   18.2421  -34.0117 N   0  0  0  0  0  0  0  0  0  0  0  0
  -20.0926   18.0224  -33.7100 C   0  0  0  0  0  0  0  0  0  0  0  0
  -19.2692   17.8635  -34.8449 C   0  0  0  0  0  0  0  0  0  0  0  0
  -17.9200   17.6158  -34.7162 C   0  0  0  0  0  0  0  0  0  0  0  0
  -17.3402   17.5170  -33.4711 C   0  0  0  0  0  0  0  0  0  0  0  0
  -18.1197   17.6683  -32.3446 C   0  0  0  0  0  0  0  0  0  0  0  0
  -19.4952   17.9213  -32.4915 C   0  0  0  0  0  0  0  0  0  0  0  0
  -17.5357   17.5682  -31.1088 C   0  0  0  0  0  0  0  0  0  0  0  0
  -16.1875   17.3195  -31.0277 C   0  0  0  0  0  0  0  0  0  0  0  0
  -15.4996   17.1999  -29.7251 C   0  0  0  0  0  0  0  0  0  0  0  0
  -15.4646   17.1784  -32.1911 C   0  0  0  0  0  0  0  0  0  0  0  0
  -14.2161   16.9481  -32.1089 O   0  0  0  0  0  0  0  0  0  0  0  0
  -16.0165   17.2727  -33.4006 N   0  0  0  0  0  0  0  0  0  0  0  0
  -15.2186   17.1184  -34.5773 C   0  0  0  0  0  0  0  0  0  0  0  0
  1  2  1  0
  2  3  1  0
  3  4  2  0
  4  5  1  0
  5  6  1  0
  6  7  3  0
  5  8  2  0
  8  9  1  0
  9 10  2  0
 10 11  1  0
 11 12  2  0
 11 13  2  0
 11 14  1  0
 14 15  1  0
 15 16  2  0
 16 17  1  0
 17 18  2  0
 18 19  1  0
 19 20  2  0
 19 21  1  0
 21 22  2  0
 22 23  1  0
 22 24  1  0
 24 25  2  0
 24 26  1  0
 26 27  1  0
 10  3  1  0
 20 15  1  0
 26 18  1  0
M  END
$$$$
