
     RDKit          3D

 37 41  0  0  0  0  0  0  0  0999 V2000
  -16.9663   36.5562  -24.9659 C   0  0  0  0  0  0  0  0  0  0  0  0
  -17.8461   37.4512  -25.3606 C   0  0  0  0  0  0  0  0  0  0  0  0
  -19.0757   37.6967  -24.5629 C   0  0  0  0  0  0  0  0  0  0  0  0
  -18.7142   38.3807  -23.3186 N   0  0  0  0  0  0  0  0  0  0  0  0
  -18.3158   37.8210  -22.1860 C   0  0  0  0  0  0  0  0  0  0  0  0
  -18.1801   36.6015  -21.9889 O   0  0  0  0  0  0  0  0  0  0  0  0
  -18.0847   38.8299  -21.2849 C   0  0  0  0  0  0  0  0  0  0  0  0
  -17.6636   38.8962  -19.9668 C   0  0  0  0  0  0  0  0  0  0  0  0
  -17.5546   40.1059  -19.4069 N   0  0  0  0  0  0  0  0  0  0  0  0
  -17.8114   41.2752  -19.9883 C   0  0  0  0  0  0  0  0  0  0  0  0
  -17.6894   42.5509  -19.3770 N   0  0  0  0  0  0  0  0  0  0  0  0
  -17.9962   43.7808  -19.9960 C   0  0  0  0  0  0  0  0  0  0  0  0
  -18.1897   43.9622  -21.3465 C   0  0  0  0  0  0  0  0  0  0  0  0
  -18.4782   45.2228  -21.8873 C   0  0  0  0  0  0  0  0  0  0  0  0
  -18.5844   46.3458  -21.1039 C   0  0  0  0  0  0  0  0  0  0  0  0
  -18.8836   47.6267  -21.6455 N   0  0  0  0  0  0  0  0  0  0  0  0
  -18.8818   47.7806  -23.0890 C   0  0  0  0  0  0  0  0  0  0  0  0
  -19.6366   49.0670  -23.3976 C   0  0  0  0  0  0  0  0  0  0  0  0
  -18.9129   50.1977  -22.8521 N   0  0  0  0  0  0  0  0  0  0  0  0
  -17.6822   50.3173  -23.6102 C   0  0  0  0  0  0  0  0  0  0  0  0
  -18.5919   50.0428  -21.4707 C   0  0  0  0  0  0  0  0  0  0  0  0
  -19.1856   48.7955  -20.8490 C   0  0  0  0  0  0  0  0  0  0  0  0
  -18.3896   46.1571  -19.7502 C   0  0  0  0  0  0  0  0  0  0  0  0
  -18.1076   44.9361  -19.2062 C   0  0  0  0  0  0  0  0  0  0  0  0
  -18.2267   41.2002  -21.2902 N   0  0  0  0  0  0  0  0  0  0  0  0
  -18.3607   40.0283  -21.9208 C   0  0  0  0  0  0  0  0  0  0  0  0
  -18.7490   39.6915  -23.1864 N   0  0  0  0  0  0  0  0  0  0  0  0
  -19.1174   40.6821  -24.1506 C   0  0  0  0  0  0  0  0  0  0  0  0
  -20.4348   40.8024  -24.5617 C   0  0  0  0  0  0  0  0  0  0  0  0
  -20.8011   41.7494  -25.4865 C   0  0  0  0  0  0  0  0  0  0  0  0
  -19.8326   42.5916  -26.0101 C   0  0  0  0  0  0  0  0  0  0  0  0
  -18.5166   42.4532  -25.5832 C   0  0  0  0  0  0  0  0  0  0  0  0
  -17.4596   43.3432  -26.1284 C   0  0  0  0  0  0  0  0  0  0  0  0
  -16.8140   44.1177  -25.0044 C   0  0  0  0  0  0  0  0  0  0  0  0
  -16.4378   42.5737  -26.9297 C   0  0  0  0  0  0  0  0  0  0  0  0
  -18.0583   44.2624  -26.9894 O   0  0  0  0  0  0  0  0  0  0  0  0
  -18.1977   41.5119  -24.6743 N   0  0  0  0  0  0  0  0  0  0  0  0
  1  2  2  0
  2  3  1  0
  3  4  1  0
  4  5  1  0
  5  6  2  0
  5  7  1  0
  7  8  2  0
  8  9  1  0
  9 10  2  0
 10 11  1  0
 11 12  1  0
 12 13  2  0
 13 14  1  0
 14 15  2  0
 15 16  1  0
 16 17  1  0
 17 18  1  0
 18 19  1  0
 19 20  1  0
 19 21  1  0
 21 22  1  0
 15 23  1  0
 23 24  2  0
 10 25  1  0
 25 26  2  0
 26 27  1  0
 27 28  1  0
 28 29  2  0
 29 30  1  0
 30 31  2  0
 31 32  1  0
 32 33  1  0
 33 34  1  0
 33 35  1  0
 33 36  1  0
 32 37  2  0
 27  4  1  0
 37 28  1  0
 26  7  1  0
 24 12  1  0
 22 16  1  0
M  END
$$$$
