
     RDKit          3D

 29 32  0  0  0  0  0  0  0  0999 V2000
  -12.9225   17.3262  -36.7276 C   0  0  0  0  0  0  0  0  0  0  0  0
  -13.2920   17.9066  -35.3607 C   0  0  0  0  0  0  0  0  0  0  0  0
  -13.1189   19.4128  -35.5019 C   0  0  0  0  0  0  0  0  0  0  0  0
  -14.6987   17.5170  -35.0110 C   0  0  0  0  0  0  0  0  0  0  0  0
  -14.8150   16.0109  -34.9476 C   0  0  0  0  0  0  0  0  0  0  0  0
  -15.5818   15.5649  -33.8210 N   0  0  0  0  0  0  0  0  0  0  0  0
  -16.9208   15.6608  -33.8925 C   0  0  0  0  0  0  0  0  0  0  0  0
  -17.4814   16.1299  -34.9164 O   0  0  0  0  0  0  0  0  0  0  0  0
  -17.7264   15.2412  -32.8296 C   0  0  0  0  0  0  0  0  0  0  0  0
  -19.1942   15.3478  -32.9329 C   0  0  0  0  0  0  0  0  0  0  0  0
  -19.7130   15.9257  -33.9391 N   0  0  0  0  0  0  0  0  0  0  0  0
  -21.0799   16.1135  -34.1990 C   0  0  0  0  0  0  0  0  0  0  0  0
  -21.4652   16.7962  -35.3663 C   0  0  0  0  0  0  0  0  0  0  0  0
  -22.7809   17.0313  -35.6856 C   0  0  0  0  0  0  0  0  0  0  0  0
  -23.7649   16.5820  -34.8309 C   0  0  0  0  0  0  0  0  0  0  0  0
  -23.3773   15.9176  -33.6962 C   0  0  0  0  0  0  0  0  0  0  0  0
  -22.0799   15.6836  -33.3779 C   0  0  0  0  0  0  0  0  0  0  0  0
  -21.6965   14.8180  -31.9226 S   0  0  0  0  0  6  0  0  0  0  0  0
  -22.1183   13.3883  -32.1121 O   0  0  0  0  0  0  0  0  0  0  0  0
  -22.2530   15.4345  -30.6965 O   0  0  0  0  0  0  0  0  0  0  0  0
  -19.9469   14.8081  -31.8614 N   0  0  0  0  0  0  0  0  0  0  0  0
  -17.0745   14.7353  -31.7313 C   0  0  0  0  0  0  0  0  0  0  0  0
  -17.8345   14.2950  -30.6287 O   0  0  0  0  0  0  0  0  0  0  0  0
  -15.7021   14.6257  -31.6320 C   0  0  0  0  0  0  0  0  0  0  0  0
  -15.0899   14.1077  -30.5089 C   0  0  0  0  0  0  0  0  0  0  0  0
  -13.7235   13.9982  -30.4189 C   0  0  0  0  0  0  0  0  0  0  0  0
  -12.9809   14.4236  -31.4897 C   0  0  0  0  0  0  0  0  0  0  0  0
  -13.5926   14.9496  -32.6310 C   0  0  0  0  0  0  0  0  0  0  0  0
  -14.9651   15.0672  -32.7382 C   0  0  0  0  0  0  0  0  0  0  0  0
  1  2  1  0
  2  3  1  0
  2  4  1  0
  4  5  1  0
  5  6  1  0
  6  7  1  0
  7  8  2  0
  7  9  1  0
  9 10  1  0
 10 11  2  0
 11 12  1  0
 12 13  2  0
 13 14  1  0
 14 15  2  0
 15 16  1  0
 16 17  2  0
 17 18  1  0
 18 19  2  0
 18 20  2  0
 18 21  1  0
  9 22  2  0
 22 23  1  0
 22 24  1  0
 24 25  2  0
 25 26  1  0
 26 27  2  0
 27 28  1  0
 28 29  2  0
 29  6  1  0
 21 10  1  0
 29 24  1  0
 17 12  1  0
M  END
$$$$
