
     RDKit          3D

 19 20  0  0  0  0  0  0  0  0999 V2000
  -37.7629   15.2460  -22.6678 C   0  0  0  0  0  0  0  0  0  0  0  0
  -36.4842   15.1622  -23.4444 C   0  0  0  0  0  0  0  0  0  0  0  0
  -36.3912   14.4955  -24.6460 C   0  0  0  0  0  0  0  0  0  0  0  0
  -35.2057   14.4278  -25.3491 C   0  0  0  0  0  0  0  0  0  0  0  0
  -34.0626   15.0287  -24.8730 C   0  0  0  0  0  0  0  0  0  0  0  0
  -32.5367   14.9968  -25.6711 S   0  0  0  0  0  6  0  0  0  0  0  0
  -32.0322   13.5539  -25.5698 O   0  0  0  0  0  0  0  0  0  0  0  0
  -31.5313   15.8526  -24.9462 O   0  0  0  0  0  0  0  0  0  0  0  0
  -32.5452   15.4403  -27.3351 C   0  0  0  0  0  0  0  0  0  0  0  0
  -32.4453   14.4515  -28.2951 C   0  0  0  0  0  0  0  0  0  0  0  0
  -32.2959   12.9950  -27.9541 C   0  0  0  0  0  0  0  0  0  0  0  0
  -32.4656   14.7979  -29.6440 C   0  0  0  0  0  0  0  0  0  0  0  0
  -32.5813   16.0956  -30.0788 C   0  0  0  0  0  0  0  0  0  0  0  0
  -32.5949   16.3813  -31.5419 C   0  0  0  0  0  0  0  0  0  0  0  0
  -32.6791   17.0691  -29.1407 C   0  0  0  0  0  0  0  0  0  0  0  0
  -32.6616   16.7485  -27.7874 C   0  0  0  0  0  0  0  0  0  0  0  0
  -32.7759   17.8496  -26.8224 C   0  0  0  0  0  0  0  0  0  0  0  0
  -34.1664   15.6940  -23.6675 C   0  0  0  0  0  0  0  0  0  0  0  0
  -35.3467   15.7674  -22.9572 C   0  0  0  0  0  0  0  0  0  0  0  0
  1  2  1  0
  2  3  2  0
  3  4  1  0
  4  5  2  0
  5  6  1  0
  6  7  2  0
  6  8  2  0
  6  9  1  0
  9 10  2  0
 10 11  1  0
 10 12  1  0
 12 13  2  0
 13 14  1  0
 13 15  1  0
 15 16  2  0
 16 17  1  0
  5 18  1  0
 18 19  2  0
 19  2  1  0
 16  9  1  0
M  END
$$$$
