
     RDKit          3D

 28 31  0  0  0  0  0  0  0  0999 V2000
  -11.3535   -2.1533  -35.1474 C   0  0  0  0  0  0  0  0  0  0  0  0
  -11.2515   -2.1848  -33.7061 N   0  0  0  0  0  0  0  0  0  0  0  0
  -10.1829   -2.9738  -33.1294 C   0  0  0  0  0  0  0  0  0  0  0  0
  -12.1361   -1.4906  -32.8688 C   0  0  0  0  0  0  0  0  0  0  0  0
  -11.8180   -0.2082  -32.4503 C   0  0  0  0  0  0  0  0  0  0  0  0
  -12.7069    0.4359  -31.6339 C   0  0  0  0  0  0  0  0  0  0  0  0
  -13.8902   -0.1612  -31.2303 C   0  0  0  0  0  0  0  0  0  0  0  0
  -14.2277   -1.4462  -31.6388 C   0  0  0  0  0  0  0  0  0  0  0  0
  -15.4776   -2.0509  -31.2003 C   0  0  0  0  0  0  0  0  0  0  0  0
  -16.6440   -1.5689  -31.7515 C   0  0  0  0  0  0  0  0  0  0  0  0
  -16.8864   -0.5815  -32.6805 C   0  0  0  0  0  0  0  0  0  0  0  0
  -16.0086    0.1094  -33.2329 O   0  0  0  0  0  0  0  0  0  0  0  0
  -18.2290   -0.4758  -32.9027 N   0  0  0  0  0  0  0  0  0  0  0  0
  -18.8482    0.4357  -33.7972 C   0  0  0  0  0  0  0  0  0  0  0  0
  -19.7625    1.3523  -33.3375 C   0  0  0  0  0  0  0  0  0  0  0  0
  -20.3636    2.2380  -34.2094 C   0  0  0  0  0  0  0  0  0  0  0  0
  -20.0806    2.2409  -35.5399 C   0  0  0  0  0  0  0  0  0  0  0  0
  -19.1559    1.3150  -36.0090 C   0  0  0  0  0  0  0  0  0  0  0  0
  -18.5555    0.4311  -35.1420 C   0  0  0  0  0  0  0  0  0  0  0  0
  -17.3968   -0.7057  -35.8270 Cl  0  0  0  0  0  0  0  0  0  0  0  0
  -18.8055   -1.3771  -32.1291 N   0  0  0  0  0  0  0  0  0  0  0  0
  -17.8889   -2.0639  -31.4132 C   0  0  0  0  0  0  0  0  0  0  0  0
  -17.9523   -3.0809  -30.4856 C   0  0  0  0  0  0  0  0  0  0  0  0
  -16.7721   -3.5446  -29.9499 C   0  0  0  0  0  0  0  0  0  0  0  0
  -16.8130   -4.4738  -29.1007 O   0  0  0  0  0  0  0  0  0  0  0  0
  -15.5659   -3.0433  -30.2976 N   0  0  0  0  0  0  0  0  0  0  0  0
  -14.3299   -3.5410  -29.7255 C   0  0  0  0  0  0  0  0  0  0  0  0
  -13.3171   -2.0747  -32.4605 C   0  0  0  0  0  0  0  0  0  0  0  0
  1  2  1  0
  2  3  1  0
  2  4  1  0
  4  5  2  0
  5  6  1  0
  6  7  2  0
  7  8  1  0
  8  9  1  0
  9 10  2  0
 10 11  1  0
 11 12  2  0
 11 13  1  0
 13 14  1  0
 14 15  2  0
 15 16  1  0
 16 17  2  0
 17 18  1  0
 18 19  2  0
 19 20  1  0
 13 21  1  0
 21 22  1  0
 22 23  2  0
 23 24  1  0
 24 25  2  0
 24 26  1  0
 26 27  1  0
  8 28  2  0
 28  4  1  0
 26  9  1  0
 22 10  1  0
 19 14  1  0
M  END
$$$$
