
     RDKit          3D

 27 30  0  0  0  0  0  0  0  0999 V2000
  -15.0687   24.4007  -10.7477 C   0  0  0  0  0  0  0  0  0  0  0  0
  -14.2897   23.3634  -11.5425 C   0  0  2  0  0  0  0  0  0  0  0  0
  -15.2048   22.8689  -12.6493 C   0  0  0  0  0  0  0  0  0  0  0  0
  -15.8338   21.7026  -12.0022 C   0  0  1  0  0  0  0  0  0  0  0  0
  -16.6760   20.8066  -12.8440 C   0  0  2  0  0  0  0  0  0  0  0  0
  -17.6461   21.5970  -13.6192 C   0  0  0  0  0  0  0  0  0  0  0  0
  -18.9159   20.9156  -14.0383 C   0  0  0  0  0  0  0  0  0  0  0  0
  -19.3612   19.9271  -12.9907 C   0  0  0  0  0  0  0  0  0  0  0  0
  -20.6186   19.9274  -12.6470 C   0  0  0  0  0  0  0  0  0  0  0  0
  -21.1498   19.0163  -11.6406 C   0  0  0  0  0  0  0  0  0  0  0  0
  -22.3536   18.9994  -11.2968 O   0  0  0  0  0  0  0  0  0  0  0  0
  -20.1767   18.1097  -11.0481 C   0  0  0  0  0  0  0  0  0  0  0  0
  -18.9154   18.1158  -11.4022 C   0  0  0  0  0  0  0  0  0  0  0  0
  -18.3783   19.0158  -12.4109 C   0  0  1  0  0  0  0  0  0  0  0  0
  -17.8186   18.1538  -13.5515 C   0  0  0  0  0  0  0  0  0  0  0  0
  -17.2460   19.8161  -11.8467 C   0  0  2  0  0  0  0  0  0  0  0  0
  -17.7119   20.5393  -10.7619 F   0  0  0  0  0  0  0  0  0  0  0  0
  -16.0767   18.9944  -11.3697 C   0  0  1  0  0  0  0  0  0  0  0  0
  -15.3013   18.5034  -12.4291 O   0  0  0  0  0  0  0  0  0  0  0  0
  -15.1280   19.8851  -10.5508 C   0  0  0  0  0  0  0  0  0  0  0  0
  -14.6186   20.9804  -11.4177 C   0  0  1  0  0  0  0  0  0  0  0  0
  -13.6328   20.5696  -12.4532 C   0  0  0  0  0  0  0  0  0  0  0  0
  -14.0706   22.1626  -10.6084 C   0  0  1  0  0  0  0  0  0  0  0  0
  -12.6672   21.9851  -10.2314 C   0  0  0  0  0  0  0  0  0  0  0  0
  -11.7338   22.3156  -10.9384 O   0  0  0  0  0  0  0  0  0  0  0  0
  -12.3712   21.3669   -8.9120 C   0  0  0  0  0  0  0  0  0  0  0  0
  -12.6127   22.2626   -7.8738 O   0  0  0  0  0  0  0  0  0  0  0  0
  2  1  1  1
  2  3  1  0
  4  3  1  6
  4  5  1  0
  5  6  1  1
  6  7  1  0
  7  8  1  0
  8  9  2  0
  9 10  1  0
 10 11  2  0
 10 12  1  0
 12 13  2  0
 13 14  1  0
 14 15  1  6
 14 16  1  0
 16 17  1  1
 16 18  1  0
 18 19  1  6
 18 20  1  0
 20 21  1  0
 21 22  1  6
 21 23  1  0
 23 24  1  6
 24 25  2  0
 24 26  1  0
 26 27  1  0
 23  2  1  0
 21  4  1  0
 16  5  1  0
 14  8  1  0
M  END
$$$$
