
     RDKit          3D

 24 27  0  0  0  0  0  0  0  0999 V2000
   -0.5147   17.0359  -25.1419 N   0  0  0  0  0  0  0  0  0  0  0  0
   -0.5500   16.7663  -23.7353 C   0  0  0  0  0  0  0  0  0  0  0  0
    0.7759   17.0381  -23.0599 C   0  0  0  0  0  0  0  0  0  0  0  0
    1.1485   18.4823  -23.0372 C   0  0  0  0  0  0  0  0  0  0  0  0
    0.9617   19.1409  -21.6876 C   0  0  0  0  0  0  0  0  0  0  0  0
    1.7764   18.4359  -20.7301 N   0  0  0  0  0  0  0  0  0  0  0  0
    2.3692   19.0647  -19.5971 C   0  0  0  0  0  0  0  0  0  0  0  0
    2.8424   18.3429  -18.5578 N   0  0  0  0  0  0  0  0  0  0  0  0
    3.4096   18.8729  -17.4659 C   0  0  0  0  0  0  0  0  0  0  0  0
    3.5103   20.2606  -17.4148 C   0  0  0  0  0  0  0  0  0  0  0  0
    3.0442   21.0339  -18.4455 C   0  0  0  0  0  0  0  0  0  0  0  0
    3.1328   22.4962  -18.4262 C   0  0  0  0  0  0  0  0  0  0  0  0
    2.6556   23.2828  -19.4266 C   0  0  0  0  0  0  0  0  0  0  0  0
    2.7971   24.6643  -19.2980 C   0  0  0  0  0  0  0  0  0  0  0  0
    3.3876   25.2728  -18.2247 C   0  0  0  0  0  0  0  0  0  0  0  0
    3.4942   26.6493  -18.1629 C   0  0  0  0  0  0  0  0  0  0  0  0
    4.0951   27.2275  -17.0668 C   0  0  0  0  0  0  0  0  0  0  0  0
    4.5681   26.4017  -16.0703 C   0  0  0  0  0  0  0  0  0  0  0  0
    4.4740   25.0318  -16.1085 C   0  0  0  0  0  0  0  0  0  0  0  0
    3.8674   24.4589  -17.2162 C   0  0  0  0  0  0  0  0  0  0  0  0
    3.7423   23.0932  -17.3150 C   0  0  0  0  0  0  0  0  0  0  0  0
    2.4872   20.3945  -19.5046 N   0  0  0  0  0  0  0  0  0  0  0  0
    1.9905   17.0249  -20.9463 C   0  0  0  0  0  0  0  0  0  0  0  0
    0.7231   16.5123  -21.6430 C   0  0  0  0  0  0  0  0  0  0  0  0
  1  2  1  0
  2  3  1  0
  3  4  1  0
  4  5  1  0
  5  6  1  0
  6  7  1  0
  7  8  2  0
  8  9  1  0
  9 10  2  0
 10 11  1  0
 11 12  1  0
 12 13  2  0
 13 14  1  0
 14 15  2  0
 15 16  1  0
 16 17  2  0
 17 18  1  0
 18 19  2  0
 19 20  1  0
 20 21  2  0
 11 22  2  0
  6 23  1  0
 23 24  1  0
 24  3  1  0
 22  7  1  0
 21 12  1  0
 20 15  1  0
M  END
$$$$
