
     RDKit          3D

 35 38  0  0  0  0  0  0  0  0999 V2000
  -26.2420   20.1994  -25.6975 C   0  0  0  0  0  0  0  0  0  0  0  0
  -27.1181   20.2168  -26.9068 C   0  0  0  0  0  0  0  0  0  0  0  0
  -26.9339   21.0982  -27.9518 C   0  0  0  0  0  0  0  0  0  0  0  0
  -27.7162   21.1479  -29.0822 C   0  0  0  0  0  0  0  0  0  0  0  0
  -27.4569   22.1083  -30.1424 C   0  0  0  0  0  0  0  0  0  0  0  0
  -28.5439   22.7938  -30.6597 C   0  0  0  0  0  0  0  0  0  0  0  0
  -28.4004   23.7136  -31.6544 C   0  0  0  0  0  0  0  0  0  0  0  0
  -29.4612   24.4288  -32.2081 O   0  0  0  0  0  0  0  0  0  0  0  0
  -27.1346   23.9805  -32.1725 C   0  0  0  0  0  0  0  0  0  0  0  0
  -26.0312   23.3149  -31.6795 C   0  0  0  0  0  0  0  0  0  0  0  0
  -26.2167   22.3859  -30.6675 C   0  0  0  0  0  0  0  0  0  0  0  0
  -24.8366   21.5272  -30.0327 Cl  0  0  0  0  0  0  0  0  0  0  0  0
  -28.7684   20.2376  -29.1662 C   0  0  0  0  0  0  0  0  0  0  0  0
  -28.9747   19.3469  -28.1363 C   0  0  0  0  0  0  0  0  0  0  0  0
  -29.9902   18.4704  -28.2155 N   0  0  0  0  0  0  0  0  0  0  0  0
  -30.2300   17.5998  -27.2557 N   0  0  0  0  0  0  0  0  0  0  0  0
  -29.4835   17.5339  -26.1510 C   0  0  0  0  0  0  0  0  0  0  0  0
  -29.7069   16.6209  -25.1002 N   0  0  0  0  0  0  0  0  0  0  0  0
  -30.7289   15.6784  -24.9994 C   0  0  0  0  0  0  0  0  0  0  0  0
  -30.7267   14.7480  -23.9414 C   0  0  0  0  0  0  0  0  0  0  0  0
  -31.6947   13.8118  -23.7828 C   0  0  0  0  0  0  0  0  0  0  0  0
  -32.7769   13.7031  -24.6697 C   0  0  0  0  0  0  0  0  0  0  0  0
  -33.6996   12.7291  -24.4331 O   0  0  0  0  0  0  0  0  0  0  0  0
  -34.8456   12.4844  -25.1532 C   0  0  0  0  0  0  0  0  0  0  0  0
  -35.8291   13.5993  -25.0416 C   0  0  0  0  0  0  0  0  0  0  0  0
  -36.1989   13.7560  -23.6479 N   0  0  0  0  0  0  0  0  0  0  0  0
  -36.9802   12.6482  -23.2247 C   0  0  0  0  0  0  0  0  0  0  0  0
  -38.3645   13.2363  -22.9061 C   0  0  0  0  0  0  0  0  0  0  0  0
  -38.0005   14.6066  -22.3899 C   0  0  0  0  0  0  0  0  0  0  0  0
  -36.8741   14.9758  -23.3408 C   0  0  0  0  0  0  0  0  0  0  0  0
  -32.7812   14.6047  -25.6991 C   0  0  0  0  0  0  0  0  0  0  0  0
  -31.7866   15.5674  -25.8616 C   0  0  0  0  0  0  0  0  0  0  0  0
  -28.4451   18.4249  -26.0629 N   0  0  0  0  0  0  0  0  0  0  0  0
  -28.1653   19.3249  -27.0111 C   0  0  0  0  0  0  0  0  0  0  0  0
  -31.8793   17.0600  -26.0986 Cl  0  0  0  0  0  0  0  0  0  0  0  0
  1  2  1  0
  2  3  2  0
  3  4  1  0
  4  5  1  0
  5  6  2  0
  6  7  1  0
  7  8  1  0
  7  9  2  0
  9 10  1  0
 10 11  2  0
 11 12  1  0
  4 13  2  0
 13 14  1  0
 14 15  2  0
 15 16  1  0
 16 17  2  0
 17 18  1  0
 18 19  1  0
 19 20  2  0
 20 21  1  0
 21 22  2  0
 22 23  1  0
 23 24  1  0
 24 25  1  0
 25 26  1  0
 26 27  1  0
 27 28  1  0
 28 29  1  0
 29 30  1  0
 22 31  1  0
 31 32  2  0
 17 33  1  0
 33 34  2  0
 34  2  1  0
 11  5  1  0
 34 14  1  0
 32 19  1  0
 30 26  1  0
M  END
$$$$
