
     RDKit          3D

 30 33  0  0  0  0  0  0  0  0999 V2000
  -20.3452   31.9945  -21.5612 C   0  0  0  0  0  0  0  0  0  0  0  0
  -19.0094   32.4644  -22.1302 C   0  0  0  0  0  0  0  0  0  0  0  0
  -17.9782   31.3678  -22.0129 C   0  0  0  0  0  0  0  0  0  0  0  0
  -18.6132   33.6821  -21.5813 O   0  0  0  0  0  0  0  0  0  0  0  0
  -18.7891   34.9419  -22.0596 C   0  0  0  0  0  0  0  0  0  0  0  0
  -19.7937   35.3568  -22.8826 C   0  0  0  0  0  0  0  0  0  0  0  0
  -19.8903   36.6610  -23.3153 C   0  0  0  0  0  0  0  0  0  0  0  0
  -18.9631   37.6268  -22.9329 C   0  0  0  0  0  0  0  0  0  0  0  0
  -19.0795   39.0098  -23.3862 C   0  0  0  0  0  0  0  0  0  0  0  0
  -18.1858   40.0055  -23.2568 N   0  0  0  0  0  0  0  0  0  0  0  0
  -18.6958   41.1156  -23.8148 C   0  0  0  0  0  0  0  0  0  0  0  0
  -18.1042   42.4352  -23.9211 C   0  0  0  0  0  0  0  0  0  0  0  0
  -17.8241   42.9653  -25.1686 C   0  0  0  0  0  0  0  0  0  0  0  0
  -17.2655   44.2143  -25.2927 C   0  0  0  0  0  0  0  0  0  0  0  0
  -16.9888   44.9323  -24.1572 C   0  0  0  0  0  0  0  0  0  0  0  0
  -17.2485   44.4526  -22.8737 C   0  0  0  0  0  0  0  0  0  0  0  0
  -17.8046   43.2031  -22.7962 C   0  0  0  0  0  0  0  0  0  0  0  0
  -18.0221   42.8137  -21.3816 C   0  0  0  0  0  0  0  0  0  0  0  0
  -17.8700   44.0974  -20.6258 C   0  0  0  0  0  0  0  0  0  0  0  0
  -17.0610   44.9862  -21.5247 C   0  0  2  0  0  0  0  0  0  0  0  0
  -17.4749   46.3755  -21.4168 N   0  0  0  0  0  0  0  0  0  0  0  0
  -18.1785   46.5300  -20.1537 C   0  0  0  0  0  0  0  0  0  0  0  0
  -17.9585   47.9215  -19.5866 C   0  0  0  0  0  0  0  0  0  0  0  0
  -19.1651   48.5990  -19.5781 O   0  0  0  0  0  0  0  0  0  0  0  0
  -19.9039   40.7814  -24.2821 N   0  0  0  0  0  0  0  0  0  0  0  0
  -20.1101   39.5123  -24.0116 O   0  0  0  0  0  0  0  0  0  0  0  0
  -17.9400   37.2126  -22.0975 C   0  0  0  0  0  0  0  0  0  0  0  0
  -17.8629   35.8961  -21.6757 C   0  0  0  0  0  0  0  0  0  0  0  0
  -16.7661   35.5060  -20.8022 C   0  0  0  0  0  0  0  0  0  0  0  0
  -15.8744   35.1957  -20.1176 N   0  0  0  0  0  0  0  0  0  0  0  0
  1  2  1  0
  2  3  1  0
  2  4  1  0
  4  5  1  0
  5  6  2  0
  6  7  1  0
  7  8  2  0
  8  9  1  0
  9 10  2  0
 10 11  1  0
 11 12  1  0
 12 13  2  0
 13 14  1  0
 14 15  2  0
 15 16  1  0
 16 17  2  0
 17 18  1  0
 18 19  1  0
 19 20  1  0
 20 21  1  6
 21 22  1  0
 22 23  1  0
 23 24  1  0
 11 25  2  0
 25 26  1  0
  8 27  1  0
 27 28  2  0
 28 29  1  0
 29 30  3  0
 28  5  1  0
 26  9  1  0
 17 12  1  0
 20 16  1  0
M  END
$$$$
