
     RDKit          3D

 40 45  0  0  0  0  0  0  0  0999 V2000
  -15.9806   18.5603  -33.6924 C   0  0  0  0  0  0  0  0  0  0  0  0
  -16.6841   18.3073  -32.3813 C   0  0  0  0  0  0  0  0  0  0  0  0
  -16.2588   16.9616  -31.8315 C   0  0  0  0  0  0  0  0  0  0  0  0
  -16.3090   19.3825  -31.3822 C   0  0  0  0  0  0  0  0  0  0  0  0
  -18.1465   18.3219  -32.5185 C   0  0  0  0  0  0  0  0  0  0  0  0
  -19.0632   19.2722  -32.0514 C   0  0  0  0  0  0  0  0  0  0  0  0
  -20.2977   18.8220  -32.4392 C   0  0  0  0  0  0  0  0  0  0  0  0
  -21.5634   19.4037  -32.2215 N   0  0  0  0  0  0  0  0  0  0  0  0
  -22.5183   18.9050  -31.2983 C   0  0  0  0  0  0  0  0  0  0  0  0
  -22.5180   17.6840  -31.0906 O   0  0  0  0  0  0  0  0  0  0  0  0
  -23.4451   19.7292  -30.6255 N   0  0  0  0  0  0  0  0  0  0  0  0
  -24.4474   19.3197  -29.7123 C   0  0  0  0  0  0  0  0  0  0  0  0
  -25.2188   20.3035  -29.0942 C   0  0  0  0  0  0  0  0  0  0  0  0
  -26.2146   19.9877  -28.1960 C   0  0  0  0  0  0  0  0  0  0  0  0
  -26.4916   18.6826  -27.8691 C   0  0  0  0  0  0  0  0  0  0  0  0
  -27.5539   18.3537  -26.9152 C   0  0  0  0  0  0  0  0  0  0  0  0
  -28.4188   17.2882  -26.9934 C   0  0  0  0  0  0  0  0  0  0  0  0
  -29.2917   17.3000  -25.9030 N   0  0  0  0  0  0  0  0  0  0  0  0
  -28.8921   18.3555  -25.2615 C   0  0  0  0  0  0  0  0  0  0  0  0
  -27.8768   19.0205  -25.7998 N   0  0  0  0  0  0  0  0  0  0  0  0
  -30.0285   18.4030  -23.8043 S   0  0  0  0  0  0  0  0  0  0  0  0
  -30.9088   16.9152  -24.3165 C   0  0  0  0  0  0  0  0  0  0  0  0
  -31.9643   16.2571  -23.7177 C   0  0  0  0  0  0  0  0  0  0  0  0
  -32.4858   15.1065  -24.3096 C   0  0  0  0  0  0  0  0  0  0  0  0
  -33.5323   14.4054  -23.7674 O   0  0  0  0  0  0  0  0  0  0  0  0
  -34.8536   14.8373  -24.0054 C   0  0  0  0  0  0  0  0  0  0  0  0
  -35.6912   13.8358  -24.7228 C   0  0  0  0  0  0  0  0  0  0  0  0
  -36.6753   13.1826  -23.9381 N   0  0  0  0  0  0  0  0  0  0  0  0
  -36.8469   11.7829  -24.1398 C   0  0  0  0  0  0  0  0  0  0  0  0
  -37.4756   11.5010  -25.4965 C   0  0  0  0  0  0  0  0  0  0  0  0
  -37.8239   12.6292  -26.1887 O   0  0  0  0  0  0  0  0  0  0  0  0
  -38.4577   13.6122  -25.4736 C   0  0  0  0  0  0  0  0  0  0  0  0
  -37.9718   13.8098  -24.0749 C   0  0  0  0  0  0  0  0  0  0  0  0
  -31.8860   14.7145  -25.4737 C   0  0  0  0  0  0  0  0  0  0  0  0
  -30.8408   15.3847  -26.0467 C   0  0  0  0  0  0  0  0  0  0  0  0
  -30.2893   16.5498  -25.4762 C   0  0  0  0  0  0  0  0  0  0  0  0
  -25.7451   17.7155  -28.4660 C   0  0  0  0  0  0  0  0  0  0  0  0
  -24.7340   18.0205  -29.3770 C   0  0  0  0  0  0  0  0  0  0  0  0
  -20.0935   17.6708  -33.0955 N   0  0  0  0  0  0  0  0  0  0  0  0
  -18.8413   17.4057  -33.1264 O   0  0  0  0  0  0  0  0  0  0  0  0
  1  2  1  0
  2  3  1  0
  2  4  1  0
  2  5  1  0
  5  6  2  0
  6  7  1  0
  7  8  1  0
  8  9  1  0
  9 10  2  0
  9 11  1  0
 11 12  1  0
 12 13  2  0
 13 14  1  0
 14 15  2  0
 15 16  1  0
 16 17  2  0
 17 18  1  0
 18 19  1  0
 19 20  2  0
 19 21  1  0
 21 22  1  0
 22 23  2  0
 23 24  1  0
 24 25  1  0
 25 26  1  0
 26 27  1  0
 27 28  1  0
 28 29  1  0
 29 30  1  0
 30 31  1  0
 31 32  1  0
 32 33  1  0
 24 34  2  0
 34 35  1  0
 35 36  2  0
 15 37  1  0
 37 38  2  0
  7 39  2  0
 39 40  1  0
 40  5  1  0
 38 12  1  0
 20 16  1  0
 36 22  1  0
 36 18  1  0
 33 28  1  0
M  END
$$$$
