
     RDKit          3D

 27 29  0  0  0  0  0  0  0  0999 V2000
  -18.8329   40.8533  -26.7757 C   0  0  0  0  0  0  0  0  0  0  0  0
  -18.9707   41.7197  -25.5602 C   0  0  0  0  0  0  0  0  0  0  0  0
  -19.9648   42.6603  -25.4936 C   0  0  0  0  0  0  0  0  0  0  0  0
  -20.1230   43.4798  -24.3853 C   0  0  0  0  0  0  0  0  0  0  0  0
  -19.2333   43.3228  -23.3229 C   0  0  0  0  0  0  0  0  0  0  0  0
  -19.4011   44.1973  -22.1419 C   0  0  0  0  0  0  0  0  0  0  0  0
  -18.2241   42.3868  -23.3595 C   0  0  0  0  0  0  0  0  0  0  0  0
  -17.3395   42.2847  -22.2118 C   0  0  0  0  0  0  0  0  0  0  0  0
  -16.5386   43.2210  -21.5947 C   0  0  0  0  0  0  0  0  0  0  0  0
  -15.8784   42.6398  -20.5317 C   0  0  0  0  0  0  0  0  0  0  0  0
  -14.9158   43.2661  -19.5857 C   0  0  0  0  0  0  0  0  0  0  0  0
  -15.2041   42.7671  -18.3293 F   0  0  0  0  0  0  0  0  0  0  0  0
  -13.6384   42.8853  -19.9520 F   0  0  0  0  0  0  0  0  0  0  0  0
  -15.0142   44.6284  -19.6442 F   0  0  0  0  0  0  0  0  0  0  0  0
  -16.2865   41.3609  -20.5176 N   0  0  0  0  0  0  0  0  0  0  0  0
  -17.1492   41.1362  -21.5035 N   0  0  0  0  0  0  0  0  0  0  0  0
  -17.7720   39.8881  -21.7702 C   0  0  0  0  0  0  0  0  0  0  0  0
  -17.1558   38.8141  -22.3675 C   0  0  0  0  0  0  0  0  0  0  0  0
  -17.8003   37.6230  -22.6060 C   0  0  0  0  0  0  0  0  0  0  0  0
  -19.1375   37.4617  -22.2393 C   0  0  0  0  0  0  0  0  0  0  0  0
  -19.9442   35.9383  -22.5500 S   0  0  0  0  0  6  0  0  0  0  0  0
  -18.8696   34.6364  -22.2521 N   0  0  0  0  0  0  0  0  0  0  0  0
  -21.1146   35.8398  -21.6405 O   0  0  0  0  0  0  0  0  0  0  0  0
  -20.3692   35.8557  -23.9924 O   0  0  0  0  0  0  0  0  0  0  0  0
  -19.7646   38.5214  -21.6438 C   0  0  0  0  0  0  0  0  0  0  0  0
  -19.0982   39.7063  -21.4146 C   0  0  0  0  0  0  0  0  0  0  0  0
  -18.1123   41.5982  -24.4860 C   0  0  0  0  0  0  0  0  0  0  0  0
  1  2  1  0
  2  3  2  0
  3  4  1  0
  4  5  2  0
  5  6  1  0
  5  7  1  0
  7  8  1  0
  8  9  2  0
  9 10  1  0
 10 11  1  0
 11 12  1  0
 11 13  1  0
 11 14  1  0
 10 15  2  0
 15 16  1  0
 16 17  1  0
 17 18  2  0
 18 19  1  0
 19 20  2  0
 20 21  1  0
 21 22  1  0
 21 23  2  0
 21 24  2  0
 20 25  1  0
 25 26  2  0
  7 27  2  0
 27  2  1  0
 16  8  1  0
 26 17  1  0
M  END
$$$$
