
     RDKit          3D

 30 33  0  0  0  0  0  0  0  0999 V2000
  -25.2806   15.7762  -32.2990 C   0  0  0  0  0  0  0  0  0  0  0  0
  -24.1391   15.6343  -31.5057 O   0  0  0  0  0  0  0  0  0  0  0  0
  -22.9559   16.2784  -31.8187 C   0  0  0  0  0  0  0  0  0  0  0  0
  -21.8015   15.6203  -32.1778 C   0  0  0  0  0  0  0  0  0  0  0  0
  -20.6288   16.3081  -32.4860 C   0  0  0  0  0  0  0  0  0  0  0  0
  -20.6040   17.6867  -32.4357 C   0  0  0  0  0  0  0  0  0  0  0  0
  -21.7544   18.3461  -32.0780 C   0  0  0  0  0  0  0  0  0  0  0  0
  -22.9098   17.6696  -31.7740 C   0  0  0  0  0  0  0  0  0  0  0  0
  -21.4734   19.6918  -32.1032 C   0  0  0  0  0  0  0  0  0  0  0  0
  -22.4391   20.7647  -31.7961 C   0  0  0  0  0  0  0  0  0  0  0  0
  -23.0204   21.3241  -33.0693 C   0  0  0  0  0  0  0  0  0  0  0  0
  -22.6577   20.9213  -34.1821 O   0  0  0  0  0  0  0  0  0  0  0  0
  -23.9941   22.3250  -32.9521 N   0  0  0  0  0  0  0  0  0  0  0  0
  -24.4537   22.8595  -31.6809 C   0  0  0  0  0  0  0  0  0  0  0  0
  -24.2489   24.3545  -31.6615 C   0  0  0  0  0  0  0  0  0  0  0  0
  -23.8698   24.8383  -32.9056 O   0  0  0  0  0  0  0  0  0  0  0  0
  -24.6484   24.3686  -33.9537 C   0  0  0  0  0  0  0  0  0  0  0  0
  -24.5956   22.8848  -34.1340 C   0  0  0  0  0  0  0  0  0  0  0  0
  -20.1316   19.8191  -32.4822 C   0  0  0  0  0  0  0  0  0  0  0  0
  -19.4973   21.1718  -32.5193 C   0  0  0  0  0  0  0  0  0  0  0  0
  -19.6080   18.6081  -32.6858 N   0  0  0  0  0  0  0  0  0  0  0  0
  -18.3339   18.2796  -33.1688 C   0  0  0  0  0  0  0  0  0  0  0  0
  -17.8536   19.0464  -34.1153 O   0  0  0  0  0  0  0  0  0  0  0  0
  -17.4381   17.2192  -32.7910 C   0  0  0  0  0  0  0  0  0  0  0  0
  -17.6179   16.5660  -31.5567 C   0  0  0  0  0  0  0  0  0  0  0  0
  -16.8463   15.4996  -31.2169 C   0  0  0  0  0  0  0  0  0  0  0  0
  -15.8664   15.0471  -32.0996 C   0  0  0  0  0  0  0  0  0  0  0  0
  -14.8485   13.6775  -31.7102 Cl  0  0  0  0  0  0  0  0  0  0  0  0
  -15.7029   15.7009  -33.3105 C   0  0  0  0  0  0  0  0  0  0  0  0
  -16.4759   16.7836  -33.6730 C   0  0  0  0  0  0  0  0  0  0  0  0
  1  2  1  0
  2  3  1  0
  3  4  2  0
  4  5  1  0
  5  6  2  0
  6  7  1  0
  7  8  2  0
  7  9  1  0
  9 10  1  0
 10 11  1  0
 11 12  2  0
 11 13  1  0
 13 14  1  0
 14 15  1  0
 15 16  1  0
 16 17  1  0
 17 18  1  0
  9 19  2  0
 19 20  1  0
 19 21  1  0
 21 22  1  0
 22 23  2  0
 22 24  1  0
 24 25  2  0
 25 26  1  0
 26 27  2  0
 27 28  1  0
 27 29  1  0
 29 30  2  0
  8  3  1  0
 18 13  1  0
 30 24  1  0
 21  6  1  0
M  END
$$$$
