
     RDKit          3D

 23 25  0  0  0  0  0  0  0  0999 V2000
  -18.2641   38.0722  -23.2489 O   0  0  0  0  0  0  0  0  0  0  0  0
  -18.5633   37.7702  -22.0883 C   0  0  0  0  0  0  0  0  0  0  0  0
  -19.3064   36.6276  -21.7127 N   0  0  0  0  0  0  0  0  0  0  0  0
  -19.5254   35.5616  -22.6345 C   0  0  0  0  0  0  0  0  0  0  0  0
  -18.6413   34.3739  -22.3692 C   0  0  0  0  0  0  0  0  0  0  0  0
  -17.4769   34.1625  -23.0585 C   0  0  0  0  0  0  0  0  0  0  0  0
  -16.6979   33.0314  -22.7811 C   0  0  0  0  0  0  0  0  0  0  0  0
  -17.0698   32.1247  -21.8336 C   0  0  0  0  0  0  0  0  0  0  0  0
  -18.2380   32.3388  -21.1429 C   0  0  0  0  0  0  0  0  0  0  0  0
  -18.5987   31.3896  -20.1719 O   0  0  0  0  0  0  0  0  0  0  0  0
  -19.0008   33.4414  -21.4111 C   0  0  0  0  0  0  0  0  0  0  0  0
  -18.1281   38.6442  -21.0362 N   0  0  0  0  0  0  0  0  0  0  0  0
  -17.6784   39.9412  -21.4171 C   0  0  0  0  0  0  0  0  0  0  0  0
  -17.7948   41.1263  -20.7293 N   0  0  0  0  0  0  0  0  0  0  0  0
  -17.3257   42.2035  -21.2367 C   0  0  0  0  0  0  0  0  0  0  0  0
  -17.4383   43.5389  -20.5501 C   0  0  0  0  0  0  0  0  0  0  0  0
  -18.2243   43.6562  -19.4089 C   0  0  0  0  0  0  0  0  0  0  0  0
  -18.3730   44.8509  -18.7476 C   0  0  0  0  0  0  0  0  0  0  0  0
  -17.7283   45.9201  -19.2417 N   0  0  0  0  0  0  0  0  0  0  0  0
  -16.9619   45.8423  -20.3392 C   0  0  0  0  0  0  0  0  0  0  0  0
  -16.8091   44.6434  -21.0068 C   0  0  0  0  0  0  0  0  0  0  0  0
  -16.7063   42.1560  -22.4729 C   0  0  0  0  0  0  0  0  0  0  0  0
  -16.8437   40.4523  -22.8605 S   0  0  0  0  0  0  0  0  0  0  0  0
  1  2  2  0
  2  3  1  0
  3  4  1  0
  4  5  1  0
  5  6  2  0
  6  7  1  0
  7  8  2  0
  8  9  1  0
  9 10  1  0
  9 11  2  0
  2 12  1  0
 12 13  1  0
 13 14  2  0
 14 15  1  0
 15 16  1  0
 16 17  2  0
 17 18  1  0
 18 19  2  0
 19 20  1  0
 20 21  2  0
 15 22  2  0
 22 23  1  0
 11  5  1  0
 23 13  1  0
 21 16  1  0
M  END
$$$$
