
     RDKit          3D

 23 25  0  0  0  0  0  0  0  0999 V2000
  -12.8179   44.3007  -19.5517 C   0  0  0  0  0  0  0  0  0  0  0  0
  -14.0235   43.3707  -19.6381 C   0  0  0  0  0  0  0  0  0  0  0  0
  -14.4997   42.7037  -18.5364 C   0  0  0  0  0  0  0  0  0  0  0  0
  -15.8868   41.8067  -19.2812 S   0  0  0  0  0  0  0  0  0  0  0  0
  -15.6342   42.4403  -20.9236 C   0  0  0  0  0  0  0  0  0  0  0  0
  -16.4839   42.0632  -22.0157 N   0  0  0  0  0  0  0  0  0  0  0  0
  -17.4993   41.1009  -21.8883 C   0  0  0  0  0  0  0  0  0  0  0  0
  -17.7908   40.5733  -20.8064 O   0  0  0  0  0  0  0  0  0  0  0  0
  -18.2624   40.7006  -23.1287 C   0  0  0  0  0  0  0  0  0  0  0  0
  -19.9044   40.1935  -22.5814 S   0  0  0  0  0  0  0  0  0  0  0  0
  -19.8193   38.4051  -22.3173 C   0  0  0  0  0  0  0  0  0  0  0  0
  -18.7844   37.6736  -22.8540 C   0  0  0  0  0  0  0  0  0  0  0  0
  -18.7739   36.3069  -22.6264 C   0  0  0  0  0  0  0  0  0  0  0  0
  -19.7491   35.6780  -21.8946 C   0  0  0  0  0  0  0  0  0  0  0  0
  -19.7615   34.2320  -21.6467 C   0  0  0  0  0  0  0  0  0  0  0  0
  -18.6527   33.4301  -21.7494 C   0  0  0  0  0  0  0  0  0  0  0  0
  -18.6642   32.0548  -21.5194 C   0  0  0  0  0  0  0  0  0  0  0  0
  -19.8606   31.4697  -21.1686 C   0  0  0  0  0  0  0  0  0  0  0  0
  -20.9915   32.2524  -21.0578 C   0  0  0  0  0  0  0  0  0  0  0  0
  -20.9600   33.6080  -21.2890 C   0  0  0  0  0  0  0  0  0  0  0  0
  -20.7317   36.4655  -21.4012 N   0  0  0  0  0  0  0  0  0  0  0  0
  -20.7568   37.7882  -21.6119 N   0  0  0  0  0  0  0  0  0  0  0  0
  -14.6432   43.1802  -20.7663 N   0  0  0  0  0  0  0  0  0  0  0  0
  1  2  1  0
  2  3  2  0
  3  4  1  0
  4  5  1  0
  5  6  1  0
  6  7  1  0
  7  8  2  0
  7  9  1  0
  9 10  1  0
 10 11  1  0
 11 12  2  0
 12 13  1  0
 13 14  2  0
 14 15  1  0
 15 16  2  0
 16 17  1  0
 17 18  2  0
 18 19  1  0
 19 20  2  0
 14 21  1  0
 21 22  2  0
  5 23  2  0
 23  2  1  0
 22 11  1  0
 20 15  1  0
M  END
$$$$
