
     RDKit          3D

 15 16  0  0  0  0  0  0  0  0999 V2000
  -22.6711   13.0239  -24.6635 O   0  0  0  0  0  0  0  0  0  0  0  0
  -22.9149   13.4423  -23.5138 C   0  0  0  0  0  0  0  0  0  0  0  0
  -24.0676   13.1213  -22.6098 C   0  0  0  0  0  0  0  0  0  0  0  0
  -24.1728   14.4101  -21.8479 C   0  0  0  0  0  0  0  0  0  0  0  0
  -25.2033   14.9390  -21.3625 O   0  0  0  0  0  0  0  0  0  0  0  0
  -22.8183   14.9785  -21.7569 C   0  0  0  0  0  0  0  0  0  0  0  0
  -22.2363   15.9061  -20.9181 C   0  0  0  0  0  0  0  0  0  0  0  0
  -23.1856   16.6478  -19.6475 Cl  0  0  0  0  0  0  0  0  0  0  0  0
  -20.8984   16.2849  -21.0419 C   0  0  0  0  0  0  0  0  0  0  0  0
  -20.1842   17.4654  -19.9632 Cl  0  0  0  0  0  0  0  0  0  0  0  0
  -20.1819   15.6879  -22.0445 C   0  0  0  0  0  0  0  0  0  0  0  0
  -18.5038   16.1064  -22.2662 Cl  0  0  0  0  0  0  0  0  0  0  0  0
  -20.7517   14.7654  -22.8826 C   0  0  0  0  0  0  0  0  0  0  0  0
  -19.7991   14.0420  -24.1330 Cl  0  0  0  0  0  0  0  0  0  0  0  0
  -22.0871   14.3827  -22.7642 C   0  0  0  0  0  0  0  0  0  0  0  0
  1  2  2  0
  2  3  1  0
  3  4  1  0
  4  5  2  0
  4  6  1  0
  6  7  2  0
  7  8  1  0
  7  9  1  0
  9 10  1  0
  9 11  2  0
 11 12  1  0
 11 13  1  0
 13 14  1  0
 13 15  2  0
 15  2  1  0
 15  6  1  0
M  END
$$$$
