
     RDKit          3D

 15 16  0  0  0  0  0  0  0  0999 V2000
  -17.6149   37.5000  -21.8295 O   0  0  0  0  0  0  0  0  0  0  0  0
  -18.7902   37.8572  -21.9824 C   0  0  0  0  0  0  0  0  0  0  0  0
  -19.1161   39.2261  -22.0347 N   0  0  0  0  0  0  0  0  0  0  0  0
  -18.2384   40.3120  -21.8831 C   0  0  0  0  0  0  0  0  0  0  0  0
  -18.1283   41.2399  -22.9211 C   0  0  0  0  0  0  0  0  0  0  0  0
  -17.3143   42.3325  -22.8945 C   0  0  0  0  0  0  0  0  0  0  0  0
  -16.5372   42.5637  -21.7851 C   0  0  0  0  0  0  0  0  0  0  0  0
  -16.6226   41.6675  -20.7444 C   0  0  0  0  0  0  0  0  0  0  0  0
  -17.4622   40.5492  -20.7833 C   0  0  0  0  0  0  0  0  0  0  0  0
  -19.7566   36.8207  -22.0977 N   0  0  0  0  0  0  0  0  0  0  0  0
  -19.2913   35.4138  -22.2241 C   0  0  0  0  0  0  0  0  0  0  0  0
  -17.9318   35.0730  -22.0091 C   0  0  0  0  0  0  0  0  0  0  0  0
  -17.6995   33.7989  -22.1608 N   0  0  0  0  0  0  0  0  0  0  0  0
  -18.4686   32.9508  -22.4438 N   0  0  0  0  0  0  0  0  0  0  0  0
  -20.0161   34.0069  -22.5850 S   0  0  0  0  0  0  0  0  0  0  0  0
  1  2  2  0
  2  3  1  0
  3  4  1  0
  4  5  2  0
  5  6  1  0
  6  7  2  0
  7  8  1  0
  8  9  2  0
  2 10  1  0
 10 11  1  0
 11 12  2  0
 12 13  1  0
 13 14  2  0
 14 15  1  0
  9  4  1  0
 15 11  1  0
M  END
$$$$
