
     RDKit          3D

 18 20  0  0  0  0  0  0  0  0999 V2000
  -10.9370   19.4486  -42.6049 C   0  0  0  0  0  0  0  0  0  0  0  0
  -12.2463   18.9799  -42.2753 N   0  0  0  0  0  0  0  0  0  0  0  0
  -13.2578   18.9814  -43.3112 C   0  0  0  0  0  0  0  0  0  0  0  0
  -12.6055   18.5151  -40.9913 C   0  0  0  0  0  0  0  0  0  0  0  0
  -13.8949   18.2210  -40.6495 C   0  0  0  0  0  0  0  0  0  0  0  0
  -14.2488   17.7672  -39.3975 C   0  0  0  0  0  0  0  0  0  0  0  0
  -13.2812   17.5973  -38.4414 C   0  0  0  0  0  0  0  0  0  0  0  0
  -13.6202   17.1111  -37.0822 C   0  0  0  0  0  0  0  0  0  0  0  0
  -13.2395   17.1096  -36.0076 N   0  0  0  0  0  0  0  0  0  0  0  0
  -13.7661   16.5706  -34.9233 C   0  0  0  0  0  0  0  0  0  0  0  0
  -13.2745   16.5846  -33.6112 C   0  0  0  0  0  0  0  0  0  0  0  0
  -13.9686   15.9662  -32.6196 C   0  0  0  0  0  0  0  0  0  0  0  0
  -15.1603   15.3001  -32.7974 C   0  0  0  0  0  0  0  0  0  0  0  0
  -15.6569   15.2783  -34.0867 C   0  0  0  0  0  0  0  0  0  0  0  0
  -14.9439   15.9169  -35.1208 C   0  0  0  0  0  0  0  0  0  0  0  0
  -15.2122   16.1201  -36.8390 S   0  0  0  0  0  0  0  0  0  0  0  0
  -11.9659   17.8839  -38.7485 C   0  0  0  0  0  0  0  0  0  0  0  0
  -11.6391   18.3320  -39.9948 C   0  0  0  0  0  0  0  0  0  0  0  0
  1  2  1  0
  2  3  1  0
  2  4  1  0
  4  5  2  0
  5  6  1  0
  6  7  2  0
  7  8  1  0
  8  9  2  0
  9 10  1  0
 10 11  2  0
 11 12  1  0
 12 13  2  0
 13 14  1  0
 14 15  2  0
 15 16  1  0
  7 17  1  0
 17 18  2  0
 18  4  1  0
 16  8  1  0
 15 10  1  0
M  END
$$$$
