
     RDKit          3D

 25 27  0  0  0  0  0  0  0  0999 V2000
  -19.7997   18.0051  -31.4908 O   0  0  0  0  0  0  0  0  0  0  0  0
  -18.7468   18.6574  -31.7643 C   0  0  0  0  0  0  0  0  0  0  0  0
  -18.7520   20.0562  -31.5753 N   0  0  0  0  0  0  0  0  0  0  0  0
  -19.9568   20.6763  -31.4031 O   0  0  0  0  0  0  0  0  0  0  0  0
  -20.1156   20.8601  -30.0306 C   0  0  0  0  0  0  0  0  0  0  0  0
  -21.3089   21.7476  -29.7437 C   0  0  0  0  0  0  0  0  0  0  0  0
  -21.0858   22.6986  -28.5664 C   0  0  0  0  0  0  0  0  0  0  0  0
  -22.0584   21.6070  -28.4726 C   0  0  0  0  0  0  0  0  0  0  0  0
  -17.6042   17.9112  -32.2560 C   0  0  0  0  0  0  0  0  0  0  0  0
  -16.4605   18.5736  -32.6129 C   0  0  0  0  0  0  0  0  0  0  0  0
  -15.3602   17.8690  -33.0473 C   0  0  0  0  0  0  0  0  0  0  0  0
  -15.3530   16.5087  -33.1421 C   0  0  0  0  0  0  0  0  0  0  0  0
  -14.2702   15.8012  -33.5699 F   0  0  0  0  0  0  0  0  0  0  0  0
  -16.4933   15.8351  -32.7878 C   0  0  0  0  0  0  0  0  0  0  0  0
  -16.5030   14.4930  -32.8754 F   0  0  0  0  0  0  0  0  0  0  0  0
  -17.6278   16.5324  -32.3425 C   0  0  0  0  0  0  0  0  0  0  0  0
  -18.7811   15.7831  -32.0272 N   0  0  0  0  0  0  0  0  0  0  0  0
  -19.4107   14.8830  -32.9065 C   0  0  0  0  0  0  0  0  0  0  0  0
  -19.1443   15.0973  -34.2700 C   0  0  0  0  0  0  0  0  0  0  0  0
  -19.7352   14.2583  -35.1828 C   0  0  0  0  0  0  0  0  0  0  0  0
  -20.5602   13.2419  -34.7765 C   0  0  0  0  0  0  0  0  0  0  0  0
  -21.4572   11.9642  -36.1998 I   0  0  0  0  0  0  0  0  0  0  0  0
  -20.8079   13.0493  -33.4404 C   0  0  0  0  0  0  0  0  0  0  0  0
  -20.2263   13.8807  -32.4861 C   0  0  0  0  0  0  0  0  0  0  0  0
  -20.6082   13.5733  -30.8066 Cl  0  0  0  0  0  0  0  0  0  0  0  0
  1  2  2  0
  2  3  1  0
  3  4  1  0
  4  5  1  0
  5  6  1  0
  6  7  1  0
  7  8  1  0
  2  9  1  0
  9 10  2  0
 10 11  1  0
 11 12  2  0
 12 13  1  0
 12 14  1  0
 14 15  1  0
 14 16  2  0
 16 17  1  0
 17 18  1  0
 18 19  2  0
 19 20  1  0
 20 21  2  0
 21 22  1  0
 21 23  1  0
 23 24  2  0
 24 25  1  0
  8  6  1  0
 16  9  1  0
 24 18  1  0
M  END
$$$$
