
     RDKit          3D

 41 45  0  0  0  0  0  0  0  0999 V2000
  -25.8345   26.6231  -37.6301 C   0  0  0  0  0  0  0  0  0  0  0  0
  -26.0777   25.5126  -36.7441 N   0  0  0  0  0  0  0  0  0  0  0  0
  -27.2678   24.8000  -37.1072 C   0  0  0  0  0  0  0  0  0  0  0  0
  -24.9088   24.6579  -36.6295 C   0  0  0  0  0  0  0  0  0  0  0  0
  -23.9985   24.8243  -37.7882 C   0  0  0  0  0  0  0  0  0  0  0  0
  -23.7041   23.8307  -38.6119 C   0  0  0  0  0  0  0  0  0  0  0  0
  -24.3909   23.5976  -39.8761 C   0  0  0  0  0  0  0  0  0  0  0  0
  -25.2873   24.4087  -40.2270 O   0  0  0  0  0  0  0  0  0  0  0  0
  -24.1252   22.5258  -40.7390 N   0  0  0  0  0  0  0  0  0  0  0  0
  -22.8229   22.0372  -41.0266 C   0  0  0  0  0  0  0  0  0  0  0  0
  -21.8573   22.8107  -41.6486 C   0  0  0  0  0  0  0  0  0  0  0  0
  -20.6015   22.3083  -41.9153 C   0  0  0  0  0  0  0  0  0  0  0  0
  -20.2667   21.0112  -41.5686 C   0  0  0  0  0  0  0  0  0  0  0  0
  -18.9196   20.4878  -41.8530 C   0  0  0  0  0  0  0  0  0  0  0  0
  -18.6171   20.2492  -43.0494 O   0  0  0  0  0  0  0  0  0  0  0  0
  -17.9677   20.2467  -40.8434 N   0  0  0  0  0  0  0  0  0  0  0  0
  -16.6863   19.6748  -41.0172 C   0  0  0  0  0  0  0  0  0  0  0  0
  -15.9170   20.1521  -42.0763 C   0  0  0  0  0  0  0  0  0  0  0  0
  -14.6529   19.6868  -42.3685 C   0  0  0  0  0  0  0  0  0  0  0  0
  -14.1441   18.6930  -41.5520 C   0  0  0  0  0  0  0  0  0  0  0  0
  -14.8553   18.1823  -40.4931 C   0  0  0  0  0  0  0  0  0  0  0  0
  -14.3196   17.1623  -39.6620 N   0  0  0  0  0  0  0  0  0  0  0  0
  -14.7346   17.1103  -38.2986 C   0  0  0  0  0  0  0  0  0  0  0  0
  -13.8855   16.7992  -37.3009 N   0  0  0  0  0  0  0  0  0  0  0  0
  -14.2774   16.7413  -36.0130 C   0  0  0  0  0  0  0  0  0  0  0  0
  -15.5868   17.0047  -35.6747 C   0  0  0  0  0  0  0  0  0  0  0  0
  -16.1369   16.9394  -34.0008 Cl  0  0  0  0  0  0  0  0  0  0  0  0
  -16.4578   17.3246  -36.7029 C   0  0  0  0  0  0  0  0  0  0  0  0
  -17.8350   17.5974  -36.3225 C   0  0  0  0  0  0  0  0  0  0  0  0
  -18.6381   18.6567  -36.7484 C   0  0  0  0  0  0  0  0  0  0  0  0
  -19.8240   18.5164  -36.1485 N   0  0  0  0  0  0  0  0  0  0  0  0
  -19.8433   17.4178  -35.3485 C   0  0  0  0  0  0  0  0  0  0  0  0
  -20.8034   16.8521  -34.5412 C   0  0  0  0  0  0  0  0  0  0  0  0
  -20.5738   15.6987  -33.8106 C   0  0  0  0  0  0  0  0  0  0  0  0
  -19.3170   15.1331  -33.9312 C   0  0  0  0  0  0  0  0  0  0  0  0
  -18.3331   15.6823  -34.7366 C   0  0  0  0  0  0  0  0  0  0  0  0
  -18.5847   16.8333  -35.4564 C   0  0  0  0  0  0  0  0  0  0  0  0
  -16.0172   17.3716  -37.9926 N   0  0  0  0  0  0  0  0  0  0  0  0
  -16.1306   18.7016  -40.2559 C   0  0  0  0  0  0  0  0  0  0  0  0
  -21.2183   20.2433  -40.9536 C   0  0  0  0  0  0  0  0  0  0  0  0
  -22.5024   20.7461  -40.6768 C   0  0  0  0  0  0  0  0  0  0  0  0
  1  2  1  0
  2  3  1  0
  2  4  1  0
  4  5  1  0
  5  6  2  0
  6  7  1  0
  7  8  2  0
  7  9  1  0
  9 10  1  0
 10 11  2  0
 11 12  1  0
 12 13  2  0
 13 14  1  0
 14 15  2  0
 14 16  1  0
 16 17  1  0
 17 18  2  0
 18 19  1  0
 19 20  2  0
 20 21  1  0
 21 22  1  0
 22 23  1  0
 23 24  2  0
 24 25  1  0
 25 26  2  0
 26 27  1  0
 26 28  1  0
 28 29  1  0
 29 30  2  0
 30 31  1  0
 31 32  1  0
 32 33  2  0
 33 34  1  0
 34 35  2  0
 35 36  1  0
 36 37  2  0
 28 38  2  0
 21 39  2  0
 13 40  1  0
 40 41  2  0
 41 10  1  0
 39 17  1  0
 38 23  1  0
 37 29  1  0
 37 32  1  0
M  END
$$$$
