
     RDKit          3D

 20 19  0  0  0  0  0  0  0  0999 V2000
  -16.6128   30.5848  -22.9766 C   0  0  0  0  0  0  0  0  0  0  0  0
  -17.6021   31.5772  -23.5042 C   0  0  1  0  0  0  0  0  0  0  0  0
  -18.9336   31.0888  -23.1987 N   0  0  0  0  0  0  0  0  0  0  0  0
  -17.4656   32.9462  -22.8757 C   0  0  1  0  0  0  0  0  0  0  0  0
  -16.1100   33.5583  -23.1051 C   0  0  0  0  0  0  0  0  0  0  0  0
  -16.0907   34.8009  -22.2116 C   0  0  0  0  0  0  0  0  0  0  0  0
  -17.0406   35.7873  -22.7743 C   0  0  2  0  0  0  0  0  0  0  0  0
  -17.1755   36.9020  -21.7700 C   0  0  0  0  0  0  0  0  0  0  0  0
  -16.5454   36.8731  -20.7010 O   0  0  0  0  0  0  0  0  0  0  0  0
  -18.0327   37.9805  -22.0680 N   0  0  0  0  0  0  0  0  0  0  0  0
  -18.2898   39.1075  -21.2636 C   0  0  0  0  0  0  0  0  0  0  0  0
  -19.1809   40.0688  -21.7515 C   0  0  0  0  0  0  0  0  0  0  0  0
  -19.4857   41.2029  -21.0223 C   0  0  0  0  0  0  0  0  0  0  0  0
  -18.9126   41.3837  -19.8199 N   0  0  0  0  0  0  0  0  0  0  0  0
  -18.0573   40.4968  -19.3118 C   0  0  0  0  0  0  0  0  0  0  0  0
  -17.7491   39.3503  -20.0487 C   0  0  0  0  0  0  0  0  0  0  0  0
  -18.3746   35.2812  -23.1556 C   0  0  0  0  0  0  0  0  0  0  0  0
  -18.5352   33.8440  -23.3990 C   0  0  0  0  0  0  0  0  0  0  0  0
  -17.7042   36.0474  -22.0519 Cl  0  0  0  0  0  0  0  0  0  0  0  0
  -17.7039   36.0442  -22.0527 Cl  0  0  0  0  0  0  0  0  0  0  0  0
  2  1  1  1
  2  3  1  0
  2  4  1  0
  4  5  1  6
  5  6  1  0
  6  7  1  0
  7  8  1  1
  8  9  2  0
  8 10  1  0
 10 11  1  0
 11 12  2  0
 12 13  1  0
 13 14  2  0
 14 15  1  0
 15 16  2  0
  7 17  1  0
 17 18  1  0
 18  4  1  0
 16 11  1  0
M  END
$$$$
