
     RDKit          3D

 31 33  0  0  0  0  0  0  0  0999 V2000
  -18.2968   13.7890  -32.4880 C   0  0  0  0  0  0  0  0  0  0  0  0
  -17.5856   14.8487  -31.6914 C   0  0  0  0  0  0  0  0  0  0  0  0
  -16.1626   14.6230  -31.6424 N   0  0  0  0  0  0  0  0  0  0  0  0
  -15.2899   15.1843  -32.6137 C   0  0  0  0  0  0  0  0  0  0  0  0
  -15.7511   15.9113  -33.6452 N   0  0  0  0  0  0  0  0  0  0  0  0
  -14.9601   16.4478  -34.5810 C   0  0  0  0  0  0  0  0  0  0  0  0
  -15.5068   17.2245  -35.6243 N   0  0  0  0  0  0  0  0  0  0  0  0
  -16.8536   17.5728  -35.7999 C   0  0  0  0  0  0  0  0  0  0  0  0
  -17.8934   16.9858  -35.1234 C   0  0  0  0  0  0  0  0  0  0  0  0
  -19.2117   17.4186  -35.3099 C   0  0  0  0  0  0  0  0  0  0  0  0
  -20.2447   16.8243  -34.6269 F   0  0  0  0  0  0  0  0  0  0  0  0
  -19.5148   18.4344  -36.1666 C   0  0  0  0  0  0  0  0  0  0  0  0
  -20.8617   18.9368  -36.3780 C   0  0  0  0  0  0  0  0  0  0  0  0
  -21.2641   19.8784  -35.6372 O   0  0  0  0  0  0  0  0  0  0  0  0
  -21.7142   18.3913  -37.3989 N   0  0  0  0  0  0  0  0  0  0  0  0
  -23.0553   18.9478  -37.4711 C   0  0  0  0  0  0  0  0  0  0  0  0
  -23.6240   18.8887  -38.8581 C   0  0  0  0  0  0  0  0  0  0  0  0
  -22.7005   18.3917  -39.7792 O   0  0  0  0  0  0  0  0  0  0  0  0
  -22.2198   17.1484  -39.4029 C   0  0  0  0  0  0  0  0  0  0  0  0
  -21.2108   17.3901  -38.2700 C   0  0  0  0  0  0  0  0  0  0  0  0
  -18.4528   19.0407  -36.8700 C   0  0  0  0  0  0  0  0  0  0  0  0
  -17.1825   18.6095  -36.6781 C   0  0  0  0  0  0  0  0  0  0  0  0
  -16.1487   19.2060  -37.3721 O   0  0  0  0  0  0  0  0  0  0  0  0
  -15.7736   20.5382  -37.2429 C   0  0  0  0  0  0  0  0  0  0  0  0
  -13.6170   16.2543  -34.4952 N   0  0  0  0  0  0  0  0  0  0  0  0
  -13.1029   15.5448  -33.4987 C   0  0  0  0  0  0  0  0  0  0  0  0
  -13.9203   14.9950  -32.5372 C   0  0  0  0  0  0  0  0  0  0  0  0
  -13.3881   14.1961  -31.3978 C   0  0  0  0  0  0  0  0  0  0  0  0
  -13.7790   14.6651  -30.1702 F   0  0  0  0  0  0  0  0  0  0  0  0
  -13.6903   12.8589  -31.5032 F   0  0  0  0  0  0  0  0  0  0  0  0
  -11.9839   14.2997  -31.4451 F   0  0  0  0  0  0  0  0  0  0  0  0
  1  2  1  0
  2  3  1  0
  3  4  1  0
  4  5  2  0
  5  6  1  0
  6  7  1  0
  7  8  1  0
  8  9  2  0
  9 10  1  0
 10 11  1  0
 10 12  2  0
 12 13  1  0
 13 14  2  0
 13 15  1  0
 15 16  1  0
 16 17  1  0
 17 18  1  0
 18 19  1  0
 19 20  1  0
 12 21  1  0
 21 22  2  0
 22 23  1  0
 23 24  1  0
  6 25  2  0
 25 26  1  0
 26 27  2  0
 27 28  1  0
 28 29  1  0
 28 30  1  0
 28 31  1  0
 27  4  1  0
 22  8  1  0
 20 15  1  0
M  END
$$$$
