
     RDKit          3D

 32 33  0  0  0  0  0  0  0  0999 V2000
  -19.2108   39.1757  -24.4342 Cl  0  0  0  0  0  0  0  0  0  0  0  0
  -19.2112   39.1727  -24.4317 Cl  0  0  0  0  0  0  0  0  0  0  0  0
  -18.1239   39.1922  -17.9705 F   0  0  0  0  0  0  0  0  0  0  0  0
  -18.3236   38.5395  -19.1546 C   0  0  0  0  0  0  0  0  0  0  0  0
  -19.6416   38.3636  -19.5284 C   0  0  0  0  0  0  0  0  0  0  0  0
  -19.8816   37.7102  -20.7152 C   0  0  0  0  0  0  0  0  0  0  0  0
  -18.8437   37.2525  -21.4944 C   0  0  0  0  0  0  0  0  0  0  0  0
  -19.2084   36.5420  -22.7893 C   0  0  0  0  0  0  0  0  0  0  0  0
  -19.4659   35.1267  -22.5349 C   0  0  0  0  0  0  0  0  0  0  0  0
  -19.4903   34.6733  -21.2319 C   0  0  0  0  0  0  0  0  0  0  0  0
  -19.7030   33.3307  -20.9320 C   0  0  0  0  0  0  0  0  0  0  0  0
  -19.8938   32.4334  -21.9653 C   0  0  0  0  0  0  0  0  0  0  0  0
  -20.1047   31.1065  -21.6736 F   0  0  0  0  0  0  0  0  0  0  0  0
  -19.8685   32.8880  -23.2601 C   0  0  0  0  0  0  0  0  0  0  0  0
  -19.6541   34.2349  -23.5451 C   0  0  0  0  0  0  0  0  0  0  0  0
  -20.1923   37.3322  -23.3894 N   0  0  0  0  0  0  0  0  0  0  0  0
  -20.7824   37.0044  -24.6168 C   0  0  0  0  0  0  0  0  0  0  0  0
  -19.7740   37.2317  -25.7482 C   0  0  0  0  0  0  0  0  0  0  0  0
  -19.2217   38.5599  -25.6694 N   0  0  0  0  0  0  0  0  0  0  0  0
  -19.2455   39.2419  -26.9498 C   0  0  0  0  0  0  0  0  0  0  0  0
  -18.6567   40.6158  -26.7792 C   0  0  0  0  0  0  0  0  0  0  0  0
  -19.3461   41.7033  -27.0396 C   0  0  0  0  0  0  0  0  0  0  0  0
  -18.8432   43.0618  -26.8983 C   0  0  0  0  0  0  0  0  0  0  0  0
  -19.6621   44.1322  -27.2017 C   0  0  0  0  0  0  0  0  0  0  0  0
  -19.2573   45.4467  -27.0936 C   0  0  0  0  0  0  0  0  0  0  0  0
  -17.9629   45.7148  -26.6585 C   0  0  0  0  0  0  0  0  0  0  0  0
  -17.1219   44.6715  -26.3481 C   0  0  0  0  0  0  0  0  0  0  0  0
  -17.5725   43.3535  -26.4717 C   0  0  0  0  0  0  0  0  0  0  0  0
  -19.8033   39.4046  -24.6752 C   0  0  0  0  0  0  0  0  0  0  0  0
  -19.7640   38.7396  -23.3384 C   0  0  0  0  0  0  0  0  0  0  0  0
  -17.5447   37.4378  -21.1042 C   0  0  0  0  0  0  0  0  0  0  0  0
  -17.2806   38.0887  -19.9207 C   0  0  0  0  0  0  0  0  0  0  0  0
  3  4  1  0
  4  5  2  0
  5  6  1  0
  6  7  2  0
  7  8  1  0
  8  9  1  0
  9 10  2  0
 10 11  1  0
 11 12  2  0
 12 13  1  0
 12 14  1  0
 14 15  2  0
  8 16  1  0
 16 17  1  0
 17 18  1  0
 18 19  1  0
 19 20  1  0
 20 21  1  0
 21 22  2  0
 22 23  1  0
 23 24  2  0
 24 25  1  0
 25 26  2  0
 26 27  1  0
 27 28  2  0
 19 29  1  0
 29 30  1  0
  7 31  1  0
 31 32  2  0
 32  4  1  0
 15  9  1  0
 30 16  1  0
 28 23  1  0
M  END
$$$$
