
     RDKit          3D

 29 32  0  0  0  0  0  0  0  0999 V2000
  -15.4180   -1.9331  -31.2794 C   0  0  0  0  0  0  0  0  0  0  0  0
  -14.6787   -0.9436  -32.1986 C   0  0  0  0  0  0  0  0  0  0  0  0
  -14.2165   -1.7134  -33.4368 C   0  0  0  0  0  0  0  0  0  0  0  0
  -13.5896   -0.4907  -31.4766 O   0  0  0  0  0  0  0  0  0  0  0  0
  -13.3609    0.7931  -31.1022 C   0  0  0  0  0  0  0  0  0  0  0  0
  -12.2835    1.1985  -30.4084 N   0  0  0  0  0  0  0  0  0  0  0  0
  -12.1225    2.4967  -30.0701 C   0  0  0  0  0  0  0  0  0  0  0  0
  -13.0423    3.4171  -30.4221 N   0  0  0  0  0  0  0  0  0  0  0  0
  -14.1345    3.0728  -31.1126 C   0  0  0  0  0  0  0  0  0  0  0  0
  -15.1334    3.9864  -31.5116 N   0  0  0  0  0  0  0  0  0  0  0  0
  -14.3130    1.7499  -31.4658 C   0  0  0  0  0  0  0  0  0  0  0  0
  -15.4369    1.3205  -32.1922 N   0  0  0  0  0  0  0  0  0  0  0  0
  -15.6330    0.1024  -32.5399 C   0  0  0  0  0  0  0  0  0  0  0  0
  -16.8724   -0.1566  -33.2936 C   0  0  0  0  0  0  0  0  0  0  0  0
  -17.7058    0.9016  -33.5958 C   0  0  0  0  0  0  0  0  0  0  0  0
  -18.8908    0.7591  -34.2945 C   0  0  0  0  0  0  0  0  0  0  0  0
  -19.2237   -0.5182  -34.6931 C   0  0  0  0  0  0  0  0  0  0  0  0
  -20.4925   -0.7195  -35.4492 C   0  0  1  0  0  0  0  0  0  0  0  0
  -20.3730   -2.0913  -36.1241 C   0  0  0  0  0  0  0  0  0  0  0  0
  -21.5754   -2.3182  -36.9855 C   0  0  0  0  0  0  0  0  0  0  0  0
  -22.7796   -2.4514  -36.0691 C   0  0  2  0  0  0  0  0  0  0  0  0
  -23.9257   -1.5759  -36.5502 C   0  0  0  0  0  0  0  0  0  0  0  0
  -25.0498   -2.3648  -37.0699 C   0  0  0  0  0  0  0  0  0  0  0  0
  -25.8600   -2.9059  -36.2802 O   0  0  0  0  0  0  0  0  0  0  0  0
  -25.2431   -2.5302  -38.4262 O   0  0  0  0  0  0  0  0  0  0  0  0
  -22.4443   -2.0660  -34.6480 C   0  0  0  0  0  0  0  0  0  0  0  0
  -21.7042   -0.7484  -34.5785 C   0  0  0  0  0  0  0  0  0  0  0  0
  -18.3971   -1.5769  -34.3947 C   0  0  0  0  0  0  0  0  0  0  0  0
  -17.1965   -1.4265  -33.6856 C   0  0  0  0  0  0  0  0  0  0  0  0
  1  2  1  0
  2  3  1  0
  2  4  1  0
  4  5  1  0
  5  6  2  0
  6  7  1  0
  7  8  2  0
  8  9  1  0
  9 10  1  0
  9 11  2  0
 11 12  1  0
 12 13  2  0
 13 14  1  0
 14 15  2  0
 15 16  1  0
 16 17  2  0
 18 17  1  1
 18 19  1  0
 19 20  1  0
 20 21  1  0
 21 22  1  6
 22 23  1  0
 23 24  2  0
 23 25  1  0
 21 26  1  0
 26 27  1  0
 17 28  1  0
 28 29  2  0
 13  2  1  0
 29 14  1  0
 11  5  1  0
 27 18  1  0
M  END
$$$$
