
     RDKit          3D

 30 34  0  0  0  0  0  0  0  0999 V2000
  -21.9527   14.5595  -31.1345 C   0  0  0  0  0  0  0  0  0  0  0  0
  -22.2146   15.2161  -32.3358 O   0  0  0  0  0  0  0  0  0  0  0  0
  -21.1527   15.5132  -33.1906 C   0  0  0  0  0  0  0  0  0  0  0  0
  -20.0770   16.2641  -32.7118 C   0  0  0  0  0  0  0  0  0  0  0  0
  -19.0537   16.5399  -33.5640 C   0  0  0  0  0  0  0  0  0  0  0  0
  -17.8714   17.3068  -33.1932 C   0  0  2  0  0  0  0  0  0  0  0  0
  -16.8164   16.5185  -32.4741 C   0  0  0  0  0  0  0  0  0  0  0  0
  -17.0220   15.2779  -31.9659 C   0  0  0  0  0  0  0  0  0  0  0  0
  -15.9530   14.6102  -31.3604 C   0  0  0  0  0  0  0  0  0  0  0  0
  -14.7138   15.2190  -31.2891 C   0  0  0  0  0  0  0  0  0  0  0  0
  -14.5439   16.5104  -31.8288 C   0  0  0  0  0  0  0  0  0  0  0  0
  -15.5790   17.1502  -32.4110 C   0  0  0  0  0  0  0  0  0  0  0  0
  -15.5162   18.5341  -32.9417 C   0  0  2  0  0  0  0  0  0  0  0  0
  -14.2689   19.1176  -32.6979 O   0  0  0  0  0  0  0  0  0  0  0  0
  -16.5897   19.1808  -32.1910 C   0  0  1  0  0  0  0  0  0  0  0  0
  -16.9238   20.6012  -32.2607 C   0  0  0  0  0  0  0  0  0  0  0  0
  -18.2586   20.5595  -31.6671 O   0  0  0  0  0  0  0  0  0  0  0  0
  -18.6841   19.1861  -31.6279 C   0  0  0  0  0  0  0  0  0  0  0  0
  -19.4794   18.8137  -30.7549 O   0  0  0  0  0  0  0  0  0  0  0  0
  -17.9463   18.6575  -32.7512 C   0  0  2  0  0  0  0  0  0  0  0  0
  -13.8684   14.3354  -30.6495 O   0  0  0  0  0  0  0  0  0  0  0  0
  -14.6076   13.2648  -30.0993 C   0  0  0  0  0  0  0  0  0  0  0  0
  -15.8625   13.3600  -30.7648 O   0  0  0  0  0  0  0  0  0  0  0  0
  -19.0937   16.0791  -34.8774 C   0  0  0  0  0  0  0  0  0  0  0  0
  -20.1358   15.3386  -35.3819 C   0  0  0  0  0  0  0  0  0  0  0  0
  -20.1982   14.8684  -36.6861 O   0  0  0  0  0  0  0  0  0  0  0  0
  -20.2616   15.6759  -37.8175 C   0  0  0  0  0  0  0  0  0  0  0  0
  -21.1596   15.0708  -34.5017 C   0  0  0  0  0  0  0  0  0  0  0  0
  -22.2321   14.3247  -34.9717 O   0  0  0  0  0  0  0  0  0  0  0  0
  -23.4061   14.9639  -35.4885 C   0  0  0  0  0  0  0  0  0  0  0  0
  1  2  1  0
  2  3  1  0
  3  4  2  0
  4  5  1  0
  6  5  1  1
  6  7  1  0
  7  8  2  0
  8  9  1  0
  9 10  2  0
 10 11  1  0
 11 12  2  0
 12 13  1  0
 13 14  1  1
 13 15  1  0
 15 16  1  6
 16 17  1  0
 17 18  1  0
 18 19  2  0
 20 18  1  1
 10 21  1  0
 21 22  1  0
 22 23  1  0
  5 24  2  0
 24 25  1  0
 25 26  1  0
 26 27  1  0
 25 28  2  0
 28 29  1  0
 29 30  1  0
 28  3  1  0
 20  6  1  0
 12  7  1  0
 20 15  1  0
 23  9  1  0
M  END
$$$$
