
     RDKit          3D

 28 30  0  0  0  0  0  0  0  0999 V2000
  -25.9097   14.7884  -30.0566 C   0  0  0  0  0  0  0  0  0  0  0  0
  -25.0470   15.3318  -31.0725 N   0  0  0  0  0  0  0  0  0  0  0  0
  -24.2987   16.5122  -30.8189 C   0  0  0  0  0  0  0  0  0  0  0  0
  -24.7697   17.4780  -29.8799 N   0  0  0  0  0  0  0  0  0  0  0  0
  -23.2056   16.6832  -31.4463 N   0  0  0  0  0  0  0  0  0  0  0  0
  -22.6057   15.8033  -32.4154 C   0  0  2  0  0  0  0  0  0  0  0  0
  -22.1708   14.5310  -31.7222 C   0  0  0  0  0  0  0  0  0  0  0  0
  -21.4854   16.5221  -33.0328 C   0  0  0  0  0  0  0  0  0  0  0  0
  -20.2060   16.2529  -32.6125 C   0  0  0  0  0  0  0  0  0  0  0  0
  -19.1194   16.9047  -33.1623 C   0  0  0  0  0  0  0  0  0  0  0  0
  -17.7816   16.6339  -32.7338 N   0  0  0  0  0  0  0  0  0  0  0  0
  -16.7869   16.2406  -33.6612 C   0  0  0  0  0  0  0  0  0  0  0  0
  -16.9690   16.5476  -34.8668 O   0  0  0  0  0  0  0  0  0  0  0  0
  -15.5823   15.5003  -33.2384 C   0  0  0  0  0  0  0  0  0  0  0  0
  -15.5517   14.9194  -31.9998 C   0  0  0  0  0  0  0  0  0  0  0  0
  -14.4387   14.2206  -31.5769 C   0  0  0  0  0  0  0  0  0  0  0  0
  -13.3345   14.1031  -32.4155 C   0  0  0  0  0  0  0  0  0  0  0  0
  -12.2222   13.4315  -32.0515 F   0  0  0  0  0  0  0  0  0  0  0  0
  -13.3941   14.7009  -33.6624 C   0  0  0  0  0  0  0  0  0  0  0  0
  -14.5113   15.3767  -34.0307 N   0  0  0  0  0  0  0  0  0  0  0  0
  -19.3726   17.8354  -34.1490 C   0  0  0  0  0  0  0  0  0  0  0  0
  -20.6474   18.1340  -34.5991 C   0  0  0  0  0  0  0  0  0  0  0  0
  -21.7001   17.4581  -34.0208 C   0  0  0  0  0  0  0  0  0  0  0  0
  -22.9771   17.6867  -34.4015 F   0  0  0  0  0  0  0  0  0  0  0  0
  -23.6049   15.3648  -33.4859 C   0  0  0  0  0  0  0  0  0  0  0  0
  -24.9281   14.5317  -32.6196 S   0  0  0  0  0  6  0  0  0  0  0  0
  -26.2184   14.6386  -33.3748 O   0  0  0  0  0  0  0  0  0  0  0  0
  -24.5446   13.0906  -32.4479 O   0  0  0  0  0  0  0  0  0  0  0  0
  1  2  1  0
  2  3  1  0
  3  4  1  0
  3  5  2  0
  5  6  1  0
  6  7  1  1
  6  8  1  0
  8  9  2  0
  9 10  1  0
 10 11  1  0
 11 12  1  0
 12 13  2  0
 12 14  1  0
 14 15  2  0
 15 16  1  0
 16 17  2  0
 17 18  1  0
 17 19  1  0
 19 20  2  0
 10 21  2  0
 21 22  1  0
 22 23  2  0
 23 24  1  0
  6 25  1  0
 25 26  1  0
 26 27  2  0
 26 28  2  0
 26  2  1  0
 23  8  1  0
 20 14  1  0
M  END
$$$$
