
     RDKit          3D

 30 32  0  0  0  0  0  0  0  0999 V2000
  -25.9191   16.0940  -33.1401 C   0  0  0  0  0  0  0  0  0  0  0  0
  -24.7195   15.3861  -33.6177 N   0  0  0  0  0  0  0  0  0  0  0  0
  -23.5971   15.1855  -32.8073 C   0  0  0  0  0  0  0  0  0  0  0  0
  -23.6462   14.2169  -32.0007 O   0  0  0  0  0  0  0  0  0  0  0  0
  -22.3961   16.0183  -32.8425 C   0  0  0  0  0  0  0  0  0  0  0  0
  -22.4722   17.3039  -33.3402 C   0  0  0  0  0  0  0  0  0  0  0  0
  -21.3823   18.1412  -33.4040 C   0  0  0  0  0  0  0  0  0  0  0  0
  -20.1657   17.6783  -32.9533 C   0  0  0  0  0  0  0  0  0  0  0  0
  -18.9911   18.6005  -33.0308 C   0  0  0  0  0  0  0  0  0  0  0  0
  -20.0551   16.3857  -32.4452 C   0  0  0  0  0  0  0  0  0  0  0  0
  -18.7675   15.9605  -31.9939 N   0  0  0  0  0  0  0  0  0  0  0  0
  -17.8521   15.4344  -32.8229 C   0  0  0  0  0  0  0  0  0  0  0  0
  -18.1598   15.2611  -34.2724 C   0  0  0  0  0  0  0  0  0  0  0  0
  -16.6080   15.0294  -32.4081 C   0  0  0  0  0  0  0  0  0  0  0  0
  -16.2670   15.1626  -31.0799 C   0  0  0  0  0  0  0  0  0  0  0  0
  -15.0320   14.7793  -30.5784 O   0  0  0  0  0  0  0  0  0  0  0  0
  -13.9845   14.6183  -31.5099 C   0  0  0  0  0  0  0  0  0  0  0  0
  -12.8988   13.7492  -31.0003 C   0  0  0  0  0  0  0  0  0  0  0  0
  -12.2424   14.0308  -29.8005 C   0  0  0  0  0  0  0  0  0  0  0  0
  -11.2356   13.2027  -29.3542 C   0  0  0  0  0  0  0  0  0  0  0  0
  -10.8285   12.0868  -30.0384 C   0  0  0  0  0  0  0  0  0  0  0  0
   -9.8311   11.3101  -29.5491 F   0  0  0  0  0  0  0  0  0  0  0  0
  -11.4835   11.8115  -31.2294 C   0  0  0  0  0  0  0  0  0  0  0  0
  -12.4921   12.6313  -31.6870 C   0  0  0  0  0  0  0  0  0  0  0  0
  -13.1005   12.3200  -32.8562 F   0  0  0  0  0  0  0  0  0  0  0  0
  -17.2126   15.7016  -30.2422 C   0  0  0  0  0  0  0  0  0  0  0  0
  -16.7537   15.8925  -28.3920 Br  0  0  0  0  0  0  0  0  0  0  0  0
  -18.4605   16.0997  -30.6988 C   0  0  0  0  0  0  0  0  0  0  0  0
  -19.2715   16.5869  -29.8559 O   0  0  0  0  0  0  0  0  0  0  0  0
  -21.1711   15.5792  -32.3987 C   0  0  0  0  0  0  0  0  0  0  0  0
  1  2  1  0
  2  3  1  0
  3  4  2  0
  3  5  1  0
  5  6  2  0
  6  7  1  0
  7  8  2  0
  8  9  1  0
  8 10  1  0
 10 11  1  0
 11 12  1  0
 12 13  1  0
 12 14  2  0
 14 15  1  0
 15 16  1  0
 16 17  1  0
 17 18  1  0
 18 19  2  0
 19 20  1  0
 20 21  2  0
 21 22  1  0
 21 23  1  0
 23 24  2  0
 24 25  1  0
 15 26  2  0
 26 27  1  0
 26 28  1  0
 28 29  2  0
 10 30  2  0
 30  5  1  0
 28 11  1  0
 24 18  1  0
M  END
$$$$
