
     RDKit          3D

 56 61  0  0  0  0  0  0  0  0999 V2000
  -14.6697   22.6587  -33.7424 C   0  0  0  0  0  0  0  0  0  0  0  0
  -15.2538   21.5187  -34.4333 N   0  0  0  0  0  0  0  0  0  0  0  0
  -14.2042   20.6802  -35.0004 C   0  0  0  0  0  0  0  0  0  0  0  0
  -16.0828   20.7211  -33.5999 C   0  0  0  0  0  0  0  0  0  0  0  0
  -17.2654   20.0992  -34.2148 C   0  0  0  0  0  0  0  0  0  0  0  0
  -18.2759   19.4563  -33.3476 C   0  0  2  0  0  0  0  0  0  0  0  0
  -19.1214   20.4795  -32.6024 C   0  0  0  0  0  0  0  0  0  0  0  0
  -20.7271   20.7660  -33.3417 S   0  0  0  0  0  0  0  0  0  0  0  0
  -21.9523   21.4115  -32.2659 C   0  0  0  0  0  0  0  0  0  0  0  0
  -21.8353   22.7249  -31.8207 C   0  0  0  0  0  0  0  0  0  0  0  0
  -22.7712   23.3024  -30.9936 C   0  0  0  0  0  0  0  0  0  0  0  0
  -23.8700   22.5957  -30.5710 C   0  0  0  0  0  0  0  0  0  0  0  0
  -23.9914   21.3062  -31.0043 C   0  0  0  0  0  0  0  0  0  0  0  0
  -23.0440   20.7135  -31.8451 C   0  0  0  0  0  0  0  0  0  0  0  0
  -17.9753   18.2660  -32.6616 N   0  0  0  0  0  0  0  0  0  0  0  0
  -18.7056   17.0675  -32.5934 C   0  0  0  0  0  0  0  0  0  0  0  0
  -19.6216   16.6260  -33.5248 C   0  0  0  0  0  0  0  0  0  0  0  0
  -20.2543   15.4030  -33.4777 C   0  0  0  0  0  0  0  0  0  0  0  0
  -19.9996   14.5216  -32.4637 C   0  0  0  0  0  0  0  0  0  0  0  0
  -20.7628   12.9633  -32.3291 S   0  0  0  0  0  6  0  0  0  0  0  0
  -20.9299   12.5866  -30.8842 O   0  0  0  0  0  0  0  0  0  0  0  0
  -19.8529   11.9619  -33.0063 O   0  0  0  0  0  0  0  0  0  0  0  0
  -22.2734   13.0113  -33.1457 N   0  0  0  0  0  0  0  0  0  0  0  0
  -23.1954   14.0290  -32.8519 C   0  0  0  0  0  0  0  0  0  0  0  0
  -24.1079   13.7955  -32.0172 O   0  0  0  0  0  0  0  0  0  0  0  0
  -23.1191   15.3569  -33.4940 C   0  0  0  0  0  0  0  0  0  0  0  0
  -23.8193   15.5895  -34.6668 C   0  0  0  0  0  0  0  0  0  0  0  0
  -23.7683   16.8332  -35.2866 C   0  0  0  0  0  0  0  0  0  0  0  0
  -23.0277   17.8676  -34.7631 C   0  0  0  0  0  0  0  0  0  0  0  0
  -22.9795   19.1472  -35.3979 N   0  0  0  0  0  0  0  0  0  0  0  0
  -22.5134   19.3296  -36.7314 C   0  0  0  0  0  0  0  0  0  0  0  0
  -22.1151   20.6925  -37.1469 C   0  0  0  0  0  0  0  0  0  0  0  0
  -22.5411   21.7630  -36.3084 N   0  0  0  0  0  0  0  0  0  0  0  0
  -22.7836   23.0181  -36.9913 C   0  0  0  0  0  0  0  0  0  0  0  0
  -23.6677   22.9020  -38.1385 C   0  0  0  0  0  0  0  0  0  0  0  0
  -24.1008   21.6454  -38.5369 C   0  0  0  0  0  0  0  0  0  0  0  0
  -24.9197   21.4658  -39.6295 C   0  0  0  0  0  0  0  0  0  0  0  0
  -25.3185   22.5770  -40.3468 C   0  0  0  0  0  0  0  0  0  0  0  0
  -24.8976   23.8492  -39.9670 C   0  0  0  0  0  0  0  0  0  0  0  0
  -24.0646   24.0027  -38.8501 C   0  0  0  0  0  0  0  0  0  0  0  0
  -23.7113   25.3738  -38.5200 C   0  0  0  0  0  0  0  0  0  0  0  0
  -22.4925   25.9218  -38.9076 C   0  0  0  0  0  0  0  0  0  0  0  0
  -22.1771   27.2306  -38.6159 C   0  0  0  0  0  0  0  0  0  0  0  0
  -23.0305   28.0583  -37.9373 C   0  0  0  0  0  0  0  0  0  0  0  0
  -22.5651   29.7065  -37.6024 Cl  0  0  0  0  0  0  0  0  0  0  0  0
  -24.2411   27.5315  -37.5470 C   0  0  0  0  0  0  0  0  0  0  0  0
  -24.5696   26.2028  -37.8398 C   0  0  0  0  0  0  0  0  0  0  0  0
  -23.7233   21.4186  -35.5368 C   0  0  0  0  0  0  0  0  0  0  0  0
  -23.4401   20.2712  -34.6194 C   0  0  0  0  0  0  0  0  0  0  0  0
  -22.3472   17.6034  -33.6035 C   0  0  0  0  0  0  0  0  0  0  0  0
  -22.3808   16.3772  -32.9672 C   0  0  0  0  0  0  0  0  0  0  0  0
  -19.1086   14.8974  -31.5160 C   0  0  0  0  0  0  0  0  0  0  0  0
  -18.4683   16.1364  -31.5621 C   0  0  0  0  0  0  0  0  0  0  0  0
  -17.5562   16.4615  -30.5282 N   0  0  0  0  0  4  0  0  0  0  0  0
  -16.9768   17.5340  -30.4494 O   0  0  0  0  0  0  0  0  0  0  0  0
  -17.3289   15.5614  -29.4923 O   0  0  0  0  0  1  0  0  0  0  0  0
  1  2  1  0
  2  3  1  0
  2  4  1  0
  4  5  1  0
  6  5  1  1
  6  7  1  0
  7  8  1  0
  8  9  1  0
  9 10  2  0
 10 11  1  0
 11 12  2  0
 12 13  1  0
 13 14  2  0
  6 15  1  0
 15 16  1  0
 16 17  2  0
 17 18  1  0
 18 19  2  0
 19 20  1  0
 20 21  2  0
 20 22  2  0
 20 23  1  0
 23 24  1  0
 24 25  2  0
 24 26  1  0
 26 27  2  0
 27 28  1  0
 28 29  2  0
 29 30  1  0
 30 31  1  0
 31 32  1  0
 32 33  1  0
 33 34  1  0
 34 35  1  0
 35 36  2  0
 36 37  1  0
 37 38  2  0
 38 39  1  0
 39 40  2  0
 40 41  1  0
 41 42  2  0
 42 43  1  0
 43 44  2  0
 44 45  1  0
 44 46  1  0
 46 47  2  0
 33 48  1  0
 48 49  1  0
 29 50  1  0
 50 51  2  0
 19 52  1  0
 52 53  2  0
 53 54  1  0
 54 55  2  0
 54 56  1  0
 14  9  1  0
 53 16  1  0
 51 26  1  0
 49 30  1  0
 40 35  1  0
 47 41  1  0
M  CHG  2  54   1  56  -1
M  END
$$$$
