
     RDKit          3D

 27 29  0  0  0  0  0  0  0  0999 V2000
  -20.7547   20.1773  -33.3522 C   0  0  0  0  0  0  0  0  0  0  0  0
  -20.0362   18.9074  -33.6554 C   0  0  0  0  0  0  0  0  0  0  0  0
  -18.7443   18.6938  -33.2584 N   0  0  0  0  0  0  0  0  0  0  0  0
  -18.4775   17.3791  -33.7172 C   0  0  0  0  0  0  0  0  0  0  0  0
  -16.9893   16.8197  -33.3370 C   0  0  0  0  0  0  0  0  0  0  0  0
  -15.9032   16.4249  -33.0778 C   0  0  0  0  0  0  0  0  0  0  0  0
  -14.8259   16.0514  -32.8106 C   0  0  0  0  0  0  0  0  0  0  0  0
  -13.5722   16.2159  -33.5295 C   0  0  0  0  0  0  0  0  0  0  0  0
  -12.4019   15.7095  -33.1710 C   0  0  0  0  0  0  0  0  0  0  0  0
  -12.2490   14.9578  -32.0476 N   0  0  0  0  0  0  0  0  0  0  0  0
  -13.3205   14.7221  -31.2837 C   0  0  0  0  0  0  0  0  0  0  0  0
  -13.0716   13.6979  -29.8567 Cl  0  0  0  0  0  0  0  0  0  0  0  0
  -14.5009   15.2151  -31.6221 C   0  0  0  0  0  0  0  0  0  0  0  0
  -19.3882   17.0203  -34.3368 C   0  0  0  0  0  0  0  0  0  0  0  0
  -19.5400   15.7017  -35.1394 C   0  0  0  0  0  0  0  0  0  0  0  0
  -20.5237   17.8676  -34.3336 N   0  0  0  0  0  0  0  0  0  0  0  0
  -21.6949   17.5974  -35.0152 C   0  0  0  0  0  0  0  0  0  0  0  0
  -21.7135   18.0417  -36.4053 C   0  0  0  0  0  0  0  0  0  0  0  0
  -22.7182   17.8541  -37.1747 C   0  0  0  0  0  0  0  0  0  0  0  0
  -23.9206   17.2249  -36.8558 C   0  0  0  0  0  0  0  0  0  0  0  0
  -24.9622   17.0238  -37.6400 O   0  0  0  0  0  0  0  0  0  0  0  0
  -25.0914   15.9227  -38.5079 C   0  0  0  0  0  0  0  0  0  0  0  0
  -24.0039   15.7075  -39.3008 F   0  0  0  0  0  0  0  0  0  0  0  0
  -26.2775   15.9830  -39.1579 F   0  0  0  0  0  0  0  0  0  0  0  0
  -25.1712   14.7917  -37.6567 F   0  0  0  0  0  0  0  0  0  0  0  0
  -23.9087   16.7840  -35.4840 C   0  0  0  0  0  0  0  0  0  0  0  0
  -22.8491   16.9769  -34.6597 C   0  0  0  0  0  0  0  0  0  0  0  0
  1  2  1  0
  2  3  2  0
  3  4  1  0
  4  5  1  0
  5  6  3  0
  6  7  1  0
  7  8  2  0
  8  9  1  0
  9 10  2  0
 10 11  1  0
 11 12  1  0
 11 13  2  0
  4 14  2  0
 14 15  1  0
 14 16  1  0
 16 17  1  0
 17 18  2  0
 18 19  1  0
 19 20  2  0
 20 21  1  0
 21 22  1  0
 22 23  1  0
 22 24  1  0
 22 25  1  0
 20 26  1  0
 26 27  2  0
 16  2  1  0
 27 17  1  0
 13  7  1  0
M  END
$$$$
