
     RDKit          3D

 20 22  0  0  0  0  0  0  0  0999 V2000
  -28.6143   15.6291  -25.6538 O   0  0  0  0  0  0  0  0  0  0  0  0
  -27.6411   16.1684  -26.2118 C   0  0  0  0  0  0  0  0  0  0  0  0
  -27.7409   17.2633  -26.9951 N   0  0  0  0  0  0  0  0  0  0  0  0
  -26.6864   17.8277  -27.5851 C   0  0  0  0  0  0  0  0  0  0  0  0
  -26.8412   19.0282  -28.4362 C   0  0  0  0  0  0  0  0  0  0  0  0
  -25.7757   19.6258  -28.9110 C   0  0  0  0  0  0  0  0  0  0  0  0
  -25.8633   20.7644  -29.8119 C   0  0  0  0  0  0  0  0  0  0  0  0
  -27.0852   21.4332  -29.9628 C   0  0  0  0  0  0  0  0  0  0  0  0
  -27.2070   22.5049  -30.7981 C   0  0  0  0  0  0  0  0  0  0  0  0
  -26.1465   22.9891  -31.5362 C   0  0  0  0  0  0  0  0  0  0  0  0
  -26.3096   24.4868  -32.7059 Br  0  0  0  0  0  0  0  0  0  0  0  0
  -24.9544   22.3159  -31.3722 C   0  0  0  0  0  0  0  0  0  0  0  0
  -24.8001   21.2291  -30.5350 C   0  0  0  0  0  0  0  0  0  0  0  0
  -25.5064   17.3193  -27.4124 O   0  0  0  0  0  0  0  0  0  0  0  0
  -25.2820   16.2545  -26.6721 C   0  0  0  0  0  0  0  0  0  0  0  0
  -24.0018   15.7801  -26.5411 C   0  0  0  0  0  0  0  0  0  0  0  0
  -23.8062   14.6670  -25.7607 C   0  0  0  0  0  0  0  0  0  0  0  0
  -24.8533   14.0320  -25.1203 C   0  0  0  0  0  0  0  0  0  0  0  0
  -26.1173   14.5490  -25.2852 C   0  0  0  0  0  0  0  0  0  0  0  0
  -26.3656   15.6615  -26.0563 C   0  0  0  0  0  0  0  0  0  0  0  0
  1  2  2  0
  2  3  1  0
  3  4  2  0
  4  5  1  0
  5  6  2  0
  6  7  1  0
  7  8  2  0
  8  9  1  0
  9 10  2  0
 10 11  1  0
 10 12  1  0
 12 13  2  0
  4 14  1  0
 14 15  1  0
 15 16  2  0
 16 17  1  0
 17 18  2  0
 18 19  1  0
 19 20  2  0
 20  2  1  0
 13  7  1  0
 20 15  1  0
M  END
$$$$
