
     RDKit          3D

 19 17  0  0  0  0  0  0  0  0999 V2000
  -11.6332   18.7985  -42.6372 Br  0  0  0  0  0  0  0  0  0  0  0  0
  -11.6335   18.7981  -42.6364 Br  0  0  0  0  0  0  0  0  0  0  0  0
   -9.2703   20.2314  -46.7204 C   0  0  0  0  0  0  0  0  0  0  0  0
  -10.1713   21.2305  -46.2466 N   0  0  0  0  0  0  0  0  0  0  0  0
  -10.4148   22.3324  -47.1086 C   0  0  0  0  0  0  0  0  0  0  0  0
  -11.3931   20.6657  -45.7781 C   0  0  0  0  0  0  0  0  0  0  0  0
  -11.0738   19.8916  -44.4888 C   0  0  0  0  0  0  0  0  0  0  0  0
  -12.3000   19.3318  -44.0413 N   0  0  0  0  0  0  0  0  0  0  0  0
  -12.7585   18.3088  -44.9211 C   0  0  0  0  0  0  0  0  0  0  0  0
  -12.3795   19.0550  -42.6543 C   0  0  0  0  0  0  0  0  0  0  0  0
  -11.4812   17.9356  -42.1815 C   0  0  0  0  0  0  0  0  0  0  0  0
  -11.6764   17.7205  -40.7307 C   0  0  0  0  0  0  0  0  0  0  0  0
  -10.9236   18.3995  -39.8098 C   0  0  0  0  0  0  0  0  0  0  0  0
  -11.1073   18.2123  -38.4401 C   0  0  0  0  0  0  0  0  0  0  0  0
  -12.0640   17.3251  -37.9835 C   0  0  0  0  0  0  0  0  0  0  0  0
  -12.2867   17.0840  -36.2630 Cl  0  0  0  0  0  0  0  0  0  0  0  0
  -12.8179   16.6440  -38.9043 C   0  0  0  0  0  0  0  0  0  0  0  0
  -14.0477   15.5208  -38.3159 Cl  0  0  0  0  0  0  0  0  0  0  0  0
  -12.6301   16.8366  -40.2626 C   0  0  0  0  0  0  0  0  0  0  0  0
  3  4  1  0
  4  5  1  0
  4  6  1  0
  6  7  1  0
  7  8  1  0
  8  9  1  0
  8 10  1  0
 10 11  1  0
 11 12  1  0
 12 13  2  0
 13 14  1  0
 14 15  2  0
 15 16  1  0
 15 17  1  0
 17 18  1  0
 17 19  2  0
 19 12  1  0
M  END
$$$$
