
     RDKit          3D

 37 39  0  0  0  0  0  0  0  0999 V2000
    0.9043   17.0730  -14.0237 C   0  0  0  0  0  0  0  0  0  0  0  0
    2.3785   16.9475  -14.2925 C   0  0  0  0  0  0  0  0  0  0  0  0
    2.5355   15.7795  -15.2750 C   0  0  0  0  0  0  0  0  0  0  0  0
    3.0574   16.5334  -13.0026 C   0  0  0  0  0  0  0  0  0  0  0  0
    2.9389   18.1574  -14.8487 N   0  0  0  0  0  0  0  0  0  0  0  0
    2.4774   18.7403  -16.0558 C   0  0  0  0  0  0  0  0  0  0  0  0
    1.3397   18.4205  -16.5009 O   0  0  0  0  0  0  0  0  0  0  0  0
    3.2330   19.6747  -16.7998 N   0  0  0  0  0  0  0  0  0  0  0  0
    2.7626   20.1960  -18.1046 C   0  0  2  0  0  0  0  0  0  0  0  0
    3.0195   19.1977  -19.1485 C   0  0  0  0  0  0  0  0  0  0  0  0
    3.8470   18.2622  -18.8225 O   0  0  0  0  0  0  0  0  0  0  0  0
    2.4821   19.1251  -20.4401 N   0  0  0  0  0  0  0  0  0  0  0  0
    1.7699   20.2440  -21.0921 C   0  0  0  0  0  0  0  0  0  0  0  0
    1.1624   19.7159  -22.3400 C   0  0  1  0  0  0  0  0  0  0  0  0
    1.4430   18.2553  -22.4146 C   0  0  1  0  0  0  0  0  0  0  0  0
    2.5374   18.0798  -21.4089 C   0  0  1  0  0  0  0  0  0  0  0  0
    3.8196   18.1636  -22.2093 C   0  0  0  0  0  0  0  0  0  0  0  0
    4.2395   17.1134  -22.7227 O   0  0  0  0  0  0  0  0  0  0  0  0
    4.4531   19.4008  -22.3261 N   0  0  0  0  0  0  0  0  0  0  0  0
    5.9657   19.4834  -22.4606 C   0  0  0  0  0  0  0  0  0  0  0  0
    6.4008   20.5058  -21.5066 C   0  0  0  0  0  0  0  0  0  0  0  0
    7.7368   20.9846  -21.2753 C   0  0  0  0  0  0  0  0  0  0  0  0
    8.3374   22.1971  -21.8715 C   0  0  0  0  0  0  0  0  0  0  0  0
    9.6612   21.4552  -21.9736 C   0  0  0  0  0  0  0  0  0  0  0  0
    8.9002   20.1721  -21.7935 C   0  0  0  0  0  0  0  0  0  0  0  0
    6.1388   19.8029  -23.8827 C   0  0  0  0  0  0  0  0  0  0  0  0
    7.3085   20.1640  -24.2854 O   0  0  0  0  0  0  0  0  0  0  0  0
    5.1268   19.7715  -24.9146 C   0  0  0  0  0  0  0  0  0  0  0  0
    4.1246   18.7849  -25.0141 N   0  0  0  0  0  0  0  0  0  0  0  0
    5.1231   20.6709  -25.7870 O   0  0  0  0  0  0  0  0  0  0  0  0
    0.0811   18.6878  -22.1361 C   0  0  0  0  0  0  0  0  0  0  0  0
   -0.8647   18.6140  -23.3509 C   0  0  0  0  0  0  0  0  0  0  0  0
   -0.6194   18.5647  -20.8244 C   0  0  0  0  0  0  0  0  0  0  0  0
    3.5256   21.4985  -18.3060 C   0  0  0  0  0  0  0  0  0  0  0  0
    3.1755   22.2720  -19.5250 C   0  0  0  0  0  0  0  0  0  0  0  0
    3.2953   22.4248  -17.1122 C   0  0  0  0  0  0  0  0  0  0  0  0
    5.0295   21.1931  -18.3082 C   0  0  0  0  0  0  0  0  0  0  0  0
  1  2  1  0
  2  3  1  0
  2  4  1  0
  2  5  1  0
  5  6  1  0
  6  7  2  0
  6  8  1  0
  9  8  1  1
  9 10  1  0
 10 11  2  0
 10 12  1  0
 12 13  1  0
 14 13  1  1
 14 15  1  0
 15 16  1  0
 16 17  1  6
 17 18  2  0
 17 19  1  0
 19 20  1  0
 20 21  1  0
 21 22  1  0
 22 23  1  0
 23 24  1  0
 24 25  1  0
 20 26  1  0
 26 27  2  0
 26 28  1  0
 28 29  1  0
 28 30  2  0
 15 31  1  1
 31 32  1  0
 31 33  1  0
  9 34  1  0
 34 35  1  0
 34 36  1  0
 34 37  1  0
 16 12  1  0
 25 22  1  0
 31 14  1  0
M  END
$$$$
