
     RDKit          3D

 19 21  0  0  0  0  0  0  0  0999 V2000
  -19.9600   33.8115  -21.0915 O   0  0  0  0  0  0  0  0  0  0  0  0
  -19.2804   33.5874  -22.2875 C   0  0  0  0  0  0  0  0  0  0  0  0
  -18.8362   34.9375  -22.8118 C   0  0  1  0  0  0  0  0  0  0  0  0
  -19.4634   35.9838  -22.1320 O   0  0  0  0  0  0  0  0  0  0  0  0
  -18.6577   37.0689  -22.4689 C   0  0  1  0  0  0  0  0  0  0  0  0
  -19.0243   38.2764  -21.8163 N   0  0  0  0  0  0  0  0  0  0  0  0
  -19.8895   38.4079  -20.8012 C   0  0  0  0  0  0  0  0  0  0  0  0
  -19.9667   39.7130  -20.4609 N   0  0  0  0  0  0  0  0  0  0  0  0
  -19.1622   40.4310  -21.2424 C   0  0  0  0  0  0  0  0  0  0  0  0
  -18.5737   39.5098  -22.0934 C   0  0  0  0  0  0  0  0  0  0  0  0
  -17.6286   39.8606  -23.1068 N   0  0  0  0  0  0  0  0  0  0  0  0
  -17.0684   41.1207  -23.4289 C   0  0  0  0  0  0  0  0  0  0  0  0
  -17.0567   42.1498  -22.6518 N   0  0  0  0  0  0  0  0  0  0  0  0
  -17.5701   42.3160  -21.3238 C   0  0  0  0  0  0  0  0  0  0  0  0
  -18.9967   41.9023  -21.1477 C   0  0  1  0  0  0  0  0  0  0  0  0
  -19.8004   42.5328  -22.1237 O   0  0  0  0  0  0  0  0  0  0  0  0
  -17.2910   36.5539  -22.0740 C   0  0  0  0  0  0  0  0  0  0  0  0
  -17.3554   35.1533  -22.6680 C   0  0  2  0  0  0  0  0  0  0  0  0
  -16.8033   35.1453  -23.9559 O   0  0  0  0  0  0  0  0  0  0  0  0
  1  2  1  0
  3  2  1  1
  3  4  1  0
  4  5  1  0
  5  6  1  1
  6  7  1  0
  7  8  2  0
  8  9  1  0
  9 10  2  0
 10 11  1  0
 11 12  1  0
 12 13  2  0
 13 14  1  0
 14 15  1  0
 15 16  1  6
  5 17  1  0
 17 18  1  0
 18 19  1  6
 18  3  1  0
 10  6  1  0
 15  9  1  0
M  END
$$$$
