
     RDKit          3D

 37 40  0  0  0  0  0  0  0  0999 V2000
  -13.9978   46.5809  -21.7027 C   0  0  0  0  0  0  0  0  0  0  0  0
  -15.0112   46.4044  -20.5614 C   0  0  1  0  0  0  0  0  0  0  0  0
  -16.0385   45.6586  -21.0605 O   0  0  0  0  0  0  0  0  0  0  0  0
  -17.2292   46.3776  -21.2834 C   0  0  1  0  0  0  0  0  0  0  0  0
  -17.0615   47.3471  -22.2228 O   0  0  0  0  0  0  0  0  0  0  0  0
  -17.6816   47.2288  -23.4172 C   0  0  0  0  0  0  0  0  0  0  0  0
  -19.1308   46.9124  -23.2168 C   0  0  0  0  0  0  0  0  0  0  0  0
  -19.2672   45.7207  -22.4996 N   0  0  0  0  0  0  0  0  0  0  0  0
  -20.1314   44.7145  -22.9671 C   0  0  0  0  0  0  0  0  0  0  0  0
  -21.4726   44.8980  -22.3450 C   0  0  0  0  0  0  0  0  0  0  0  0
  -21.9618   44.2110  -21.2760 N   0  0  0  0  0  0  0  0  0  0  0  0
  -23.1818   44.6378  -21.0025 N   0  0  0  0  0  0  0  0  0  0  0  0
  -23.5166   45.5964  -21.8679 C   0  0  0  0  0  0  0  0  0  0  0  0
  -24.6105   46.2368  -21.9107 O   0  0  0  0  0  0  0  0  0  0  0  0
  -22.4592   45.7468  -22.6867 N   0  0  0  0  0  0  0  0  0  0  0  0
  -18.3522   45.4283  -21.4760 C   0  0  1  0  0  0  0  0  0  0  0  0
  -17.8509   44.0224  -21.6866 C   0  0  0  0  0  0  0  0  0  0  0  0
  -16.8503   43.7326  -22.5940 C   0  0  0  0  0  0  0  0  0  0  0  0
  -16.3722   42.4552  -22.8089 C   0  0  0  0  0  0  0  0  0  0  0  0
  -16.9161   41.4149  -22.0857 C   0  0  0  0  0  0  0  0  0  0  0  0
  -16.4322   40.1642  -22.3123 F   0  0  0  0  0  0  0  0  0  0  0  0
  -17.9119   41.6720  -21.1768 C   0  0  0  0  0  0  0  0  0  0  0  0
  -18.3744   42.9577  -20.9784 C   0  0  0  0  0  0  0  0  0  0  0  0
  -14.3212   45.8521  -19.3818 C   0  0  0  0  0  0  0  0  0  0  0  0
  -14.2413   46.4691  -18.1570 C   0  0  0  0  0  0  0  0  0  0  0  0
  -13.5890   45.9231  -17.0713 C   0  0  0  0  0  0  0  0  0  0  0  0
  -13.5334   46.6355  -15.7670 C   0  0  0  0  0  0  0  0  0  0  0  0
  -12.7184   45.9459  -14.8905 F   0  0  0  0  0  0  0  0  0  0  0  0
  -14.7915   46.8493  -15.2432 F   0  0  0  0  0  0  0  0  0  0  0  0
  -12.9480   47.8974  -15.9375 F   0  0  0  0  0  0  0  0  0  0  0  0
  -12.9887   44.6919  -17.2358 C   0  0  0  0  0  0  0  0  0  0  0  0
  -13.0397   44.0282  -18.4484 C   0  0  0  0  0  0  0  0  0  0  0  0
  -12.3863   42.7020  -18.6017 C   0  0  0  0  0  0  0  0  0  0  0  0
  -11.9022   42.5401  -19.8905 F   0  0  0  0  0  0  0  0  0  0  0  0
  -11.3123   42.6778  -17.7033 F   0  0  0  0  0  0  0  0  0  0  0  0
  -13.2785   41.7178  -18.2711 F   0  0  0  0  0  0  0  0  0  0  0  0
  -13.7105   44.6201  -19.5163 C   0  0  0  0  0  0  0  0  0  0  0  0
  2  1  1  6
  2  3  1  0
  4  3  1  6
  4  5  1  0
  5  6  1  0
  6  7  1  0
  7  8  1  0
  8  9  1  0
  9 10  1  0
 10 11  2  0
 11 12  1  0
 12 13  1  0
 13 14  2  0
 13 15  1  0
  8 16  1  0
 16 17  1  6
 17 18  2  0
 18 19  1  0
 19 20  2  0
 20 21  1  0
 20 22  1  0
 22 23  2  0
  2 24  1  0
 24 25  2  0
 25 26  1  0
 26 27  1  0
 27 28  1  0
 27 29  1  0
 27 30  1  0
 26 31  2  0
 31 32  1  0
 32 33  1  0
 33 34  1  0
 33 35  1  0
 33 36  1  0
 32 37  2  0
 16  4  1  0
 23 17  1  0
 37 24  1  0
 15 10  1  0
M  END
$$$$
