
     RDKit          3D

 36 37  0  0  0  0  0  0  0  0999 V2000
  -25.5379    2.0209  -29.3438 O   0  0  0  0  0  0  0  0  0  0  0  0
  -24.5371    2.7636  -29.4590 C   0  0  0  0  0  0  0  0  0  0  0  0
  -24.6523    4.0901  -29.0821 O   0  0  0  0  0  1  0  0  0  0  0  0
  -23.2546    2.2838  -29.9753 C   0  0  0  0  0  0  0  0  0  0  0  0
  -23.1155    0.9548  -30.3603 C   0  0  0  0  0  0  0  0  0  0  0  0
  -21.9191    0.4748  -30.8503 C   0  0  0  0  0  0  0  0  0  0  0  0
  -21.7428   -0.7015  -31.2073 O   0  0  0  0  0  0  0  0  0  0  0  0
  -20.8802    1.3700  -30.9378 C   0  0  0  0  0  0  0  0  0  0  0  0
  -19.6222    0.9230  -31.4381 C   0  0  0  0  0  0  0  0  0  0  0  0
  -19.5344   -0.3544  -31.7917 O   0  0  0  0  0  0  0  0  0  0  0  0
  -18.7178   -1.2848  -32.2961 C   0  0  0  0  0  0  0  0  0  0  0  0
  -18.1850   -1.1611  -33.6849 C   0  0  0  0  0  0  0  0  0  0  0  0
  -17.4316   -0.0661  -33.9401 O   0  0  0  0  0  0  0  0  0  0  0  0
  -19.3720   -1.2613  -34.6313 C   0  0  0  0  0  0  0  0  0  0  0  0
  -18.9347   -1.3440  -35.9739 O   0  0  0  0  0  0  0  0  0  0  0  0
  -19.9005   -1.4414  -36.9647 C   0  0  0  0  0  0  0  0  0  0  0  0
  -21.2466   -1.4582  -36.6668 C   0  0  0  0  0  0  0  0  0  0  0  0
  -22.1711   -1.5564  -37.6854 C   0  0  0  0  0  0  0  0  0  0  0  0
  -21.7687   -1.6391  -39.0134 C   0  0  0  0  0  0  0  0  0  0  0  0
  -20.4301   -1.6240  -39.3342 C   0  0  0  0  0  0  0  0  0  0  0  0
  -20.0666   -1.7028  -40.5925 O   0  0  0  0  0  0  0  0  0  0  0  0
  -18.8021   -1.6933  -40.9625 C   0  0  0  0  0  0  0  0  0  0  0  0
  -18.4459   -1.7830  -42.3725 C   0  0  0  0  0  0  0  0  0  0  0  0
  -19.3415   -1.8702  -43.2467 O   0  0  0  0  0  0  0  0  0  0  0  0
  -17.1030   -1.7693  -42.7141 O   0  0  0  0  0  1  0  0  0  0  0  0
  -17.8439   -1.5966  -39.9770 C   0  0  0  0  0  0  0  0  0  0  0  0
  -18.1824   -1.5112  -38.6355 C   0  0  0  0  0  0  0  0  0  0  0  0
  -17.3094   -1.4222  -37.7262 O   0  0  0  0  0  0  0  0  0  0  0  0
  -19.5157   -1.5256  -38.3079 C   0  0  0  0  0  0  0  0  0  0  0  0
  -18.5873    1.8206  -31.5228 C   0  0  0  0  0  0  0  0  0  0  0  0
  -18.7578    3.1416  -31.1307 C   0  0  0  0  0  0  0  0  0  0  0  0
  -19.9791    3.5651  -30.6482 C   0  0  0  0  0  0  0  0  0  0  0  0
  -21.0379    2.6737  -30.5537 C   0  0  0  0  0  0  0  0  0  0  0  0
  -22.2159    3.0560  -30.0944 O   0  0  0  0  0  0  0  0  0  0  0  0
  -20.0893   -0.0742  -34.5983 Na  0  0  0  0  0 15  0  0  0  0  0  0
  -20.0893   -0.0742  -34.5983 Na  0  0  0  0  0 15  0  0  0  0  0  0
  1  2  2  0
  2  3  1  0
  2  4  1  0
  4  5  2  0
  5  6  1  0
  6  7  2  0
  6  8  1  0
  8  9  2  0
  9 10  1  0
 10 11  1  0
 11 12  1  0
 12 13  1  0
 12 14  1  0
 14 15  1  0
 15 16  1  0
 16 17  2  0
 17 18  1  0
 18 19  2  0
 19 20  1  0
 20 21  1  0
 21 22  1  0
 22 23  1  0
 23 24  2  0
 23 25  1  0
 22 26  2  0
 26 27  1  0
 27 28  2  0
 27 29  1  0
  9 30  1  0
 30 31  2  0
 31 32  1  0
 32 33  2  0
 33 34  1  0
 34  4  1  0
 33  8  1  0
 29 16  1  0
 29 20  2  0
M  CHG  4   3  -1  25  -1  35   1  36   1
M  END
$$$$
