
     RDKit          3D

 21 22  0  0  0  0  0  0  0  0999 V2000
  -14.8706   21.3056  -34.1052 C   0  0  0  0  0  0  0  0  0  0  0  0
  -15.7190   20.3063  -33.9709 C   0  0  0  0  0  0  0  0  0  0  0  0
  -16.6314   20.1845  -32.8199 C   0  0  0  0  0  0  0  0  0  0  0  0
  -17.0259   18.7885  -32.5919 N   0  0  0  0  0  0  0  0  0  0  0  0
  -18.1061   18.1641  -33.0995 C   0  0  0  0  0  0  0  0  0  0  0  0
  -19.1153   18.7846  -34.0000 C   0  0  0  0  0  0  0  0  0  0  0  0
  -18.1435   16.8528  -32.6607 C   0  0  0  0  0  0  0  0  0  0  0  0
  -17.0493   16.6684  -31.8572 C   0  0  0  0  0  0  0  0  0  0  0  0
  -16.7079   15.4118  -31.1821 C   0  0  0  0  0  0  0  0  0  0  0  0
  -15.5941   15.4031  -30.6009 N   0  0  0  0  0  0  0  0  0  0  0  0
  -14.9783   14.4149  -29.8899 N   0  0  0  0  0  0  0  0  0  0  0  0
  -15.5452   13.3018  -29.7428 C   0  0  0  0  0  0  0  0  0  0  0  0
  -14.8775   12.2931  -28.9967 N   0  0  0  0  0  0  0  0  0  0  0  0
  -13.5978   12.5966  -28.3862 C   0  0  0  0  0  0  0  0  0  0  0  0
  -13.8059   13.2697  -27.0401 C   0  0  0  0  0  0  0  0  0  0  0  0
  -12.7750   11.3228  -28.2466 C   0  0  0  0  0  0  0  0  0  0  0  0
  -12.8490   13.6019  -29.2518 C   0  0  0  0  0  0  0  0  0  0  0  0
  -17.1353   12.8979  -30.4073 S   0  0  0  0  0  0  0  0  0  0  0  0
  -17.7227   14.3498  -31.2876 C   0  0  0  0  0  0  0  0  0  0  0  0
  -16.3853   17.8741  -31.8360 C   0  0  0  0  0  0  0  0  0  0  0  0
  -15.1411   18.1334  -31.0885 C   0  0  0  0  0  0  0  0  0  0  0  0
  1  2  2  0
  2  3  1  0
  3  4  1  0
  4  5  1  0
  5  6  1  0
  5  7  2  0
  7  8  1  0
  8  9  1  0
  9 10  2  0
 10 11  1  0
 11 12  2  0
 12 13  1  0
 13 14  1  0
 14 15  1  0
 14 16  1  0
 14 17  1  0
 12 18  1  0
 18 19  1  0
  8 20  2  0
 20 21  1  0
 20  4  1  0
 19  9  1  0
M  END
$$$$
