
     RDKit          3D

 31 35  0  0  0  0  0  0  0  0999 V2000
  -15.4444   21.9641  -46.5348 C   0  0  0  0  0  0  0  0  0  0  0  0
  -16.7124   22.6491  -46.1795 C   0  0  0  0  0  0  0  0  0  0  0  0
  -17.0718   23.7598  -46.9273 C   0  0  0  0  0  0  0  0  0  0  0  0
  -18.2505   24.3901  -46.5909 C   0  0  0  0  0  0  0  0  0  0  0  0
  -18.9889   23.8829  -45.5451 C   0  0  0  0  0  0  0  0  0  0  0  0
  -18.5897   22.7776  -44.8332 C   0  0  0  0  0  0  0  0  0  0  0  0
  -19.4552   22.3041  -43.7194 C   0  0  0  0  0  0  0  0  0  0  0  0
  -20.8891   22.4009  -44.0484 C   0  0  0  0  0  0  0  0  0  0  0  0
  -21.2688   22.1935  -45.2281 O   0  0  0  0  0  0  0  0  0  0  0  0
  -21.8290   22.7232  -43.0502 N   0  0  0  0  0  0  0  0  0  0  0  0
  -23.2356   23.0699  -43.2071 C   0  0  0  0  0  0  0  0  0  0  0  0
  -23.8263   22.4305  -41.9410 C   0  0  0  0  0  0  0  0  0  0  0  0
  -22.7460   22.6056  -40.9304 C   0  0  0  0  0  0  0  0  0  0  0  0
  -21.5839   22.7764  -41.6408 C   0  0  0  0  0  0  0  0  0  0  0  0
  -20.4067   22.9644  -40.9191 C   0  0  0  0  0  0  0  0  0  0  0  0
  -20.4001   22.9796  -39.5399 C   0  0  0  0  0  0  0  0  0  0  0  0
  -21.5678   22.8079  -38.8267 C   0  0  0  0  0  0  0  0  0  0  0  0
  -21.6340   22.8127  -37.3713 C   0  0  0  0  0  0  0  0  0  0  0  0
  -21.6235   23.8734  -36.4903 C   0  0  0  0  0  0  0  0  0  0  0  0
  -21.7012   23.4535  -35.2310 N   0  0  0  0  0  0  0  0  0  0  0  0
  -21.7155   24.2825  -34.0484 C   0  0  0  0  0  0  0  0  0  0  0  0
  -21.7646   22.0947  -35.2661 C   0  0  0  0  0  0  0  0  0  0  0  0
  -21.8528   21.2079  -34.2645 N   0  0  0  0  0  0  0  0  0  0  0  0
  -21.9005   19.9005  -34.5902 C   0  0  0  0  0  0  0  0  0  0  0  0
  -21.8630   19.4700  -35.8626 N   0  0  0  0  0  0  0  0  0  0  0  0
  -21.7742   20.3480  -36.8863 C   0  0  0  0  0  0  0  0  0  0  0  0
  -21.7320   19.9375  -38.2376 N   0  0  0  0  0  0  0  0  0  0  0  0
  -21.7240   21.6874  -36.5813 C   0  0  0  0  0  0  0  0  0  0  0  0
  -22.7346   22.6217  -39.5376 C   0  0  0  0  0  0  0  0  0  0  0  0
  -23.9199   22.4465  -38.9030 F   0  0  0  0  0  0  0  0  0  0  0  0
  -17.4444   22.1740  -45.1683 N   0  0  0  0  0  0  0  0  0  0  0  0
  1  2  1  0
  2  3  2  0
  3  4  1  0
  4  5  2  0
  5  6  1  0
  6  7  1  0
  7  8  1  0
  8  9  2  0
  8 10  1  0
 10 11  1  0
 11 12  1  0
 12 13  1  0
 13 14  2  0
 14 15  1  0
 15 16  2  0
 16 17  1  0
 17 18  1  0
 18 19  2  0
 19 20  1  0
 20 21  1  0
 20 22  1  0
 22 23  2  0
 23 24  1  0
 24 25  2  0
 25 26  1  0
 26 27  1  0
 26 28  2  0
 17 29  2  0
 29 30  1  0
  6 31  2  0
 31  2  1  0
 14 10  1  0
 28 18  1  0
 29 13  1  0
 28 22  1  0
M  END
$$$$
