
     RDKit          3D

 30 32  0  0  0  0  0  0  0  0999 V2000
  -20.3052   20.1974  -31.8863 C   0  0  0  0  0  0  0  0  0  0  0  0
  -19.4511   21.2231  -32.5948 C   0  0  0  0  0  0  0  0  0  0  0  0
  -20.3364   21.9213  -33.6213 C   0  0  0  0  0  0  0  0  0  0  0  0
  -18.3085   20.4978  -33.3153 C   0  0  0  0  0  0  0  0  0  0  0  0
  -17.3638   20.0309  -32.3477 N   0  0  0  0  0  0  0  0  0  0  0  0
  -16.3407   20.6685  -31.8168 N   0  0  0  0  0  0  0  0  0  0  0  0
  -15.6937   19.8786  -30.9439 C   0  0  0  0  0  0  0  0  0  0  0  0
  -16.3505   18.6646  -30.9227 C   0  0  0  0  0  0  0  0  0  0  0  0
  -16.1735   17.4822  -30.2491 C   0  0  0  0  0  0  0  0  0  0  0  0
  -17.0568   16.4238  -30.4789 C   0  0  0  0  0  0  0  0  0  0  0  0
  -16.8439   15.2622  -29.7834 O   0  0  0  0  0  0  0  0  0  0  0  0
  -15.7045   14.4749  -29.8771 C   0  0  0  0  0  0  0  0  0  0  0  0
  -14.9783   14.3876  -31.0392 C   0  0  0  0  0  0  0  0  0  0  0  0
  -13.8549   13.6068  -31.1231 C   0  0  0  0  0  0  0  0  0  0  0  0
  -13.4348   12.8927  -30.0339 C   0  0  0  0  0  0  0  0  0  0  0  0
  -12.3122   12.1169  -30.1292 F   0  0  0  0  0  0  0  0  0  0  0  0
  -14.1347   12.9490  -28.8401 C   0  0  0  0  0  0  0  0  0  0  0  0
  -15.2526   13.7366  -28.7862 C   0  0  0  0  0  0  0  0  0  0  0  0
  -15.9572   13.7828  -27.6158 F   0  0  0  0  0  0  0  0  0  0  0  0
  -18.0975   16.4942  -31.3429 C   0  0  0  0  0  0  0  0  0  0  0  0
  -19.0486   15.4545  -31.6401 C   0  0  0  0  0  0  0  0  0  0  0  0
  -18.7010   14.2187  -31.5292 O   0  0  0  0  0  0  0  0  0  0  0  0
  -20.3670   15.6549  -32.0540 N   0  0  0  0  0  0  0  0  0  0  0  0
  -21.5494   15.0637  -31.4216 C   0  0  0  0  0  0  0  0  0  0  0  0
  -22.1845   14.1453  -32.3972 C   0  0  0  0  0  0  0  0  0  0  0  0
  -23.6282   14.2149  -32.4210 N   0  0  0  0  0  0  0  0  0  0  0  0
  -24.2000   13.4194  -33.4865 C   0  0  0  0  0  0  0  0  0  0  0  0
  -24.0852   13.5694  -31.1779 C   0  0  0  0  0  0  0  0  0  0  0  0
  -18.2488   17.7214  -32.0160 C   0  0  0  0  0  0  0  0  0  0  0  0
  -17.4049   18.7865  -31.8206 C   0  0  0  0  0  0  0  0  0  0  0  0
  1  2  1  0
  2  3  1  0
  2  4  1  0
  4  5  1  0
  5  6  1  0
  6  7  2  0
  7  8  1  0
  8  9  2  0
  9 10  1  0
 10 11  1  0
 11 12  1  0
 12 13  2  0
 13 14  1  0
 14 15  2  0
 15 16  1  0
 15 17  1  0
 17 18  2  0
 18 19  1  0
 10 20  2  0
 20 21  1  0
 21 22  2  0
 21 23  1  0
 23 24  1  0
 24 25  1  0
 25 26  1  0
 26 27  1  0
 26 28  1  0
 20 29  1  0
 29 30  2  0
 30  5  1  0
 30  8  1  0
 18 12  1  0
M  END
$$$$
