
     RDKit          3D

 15 16  0  0  0  0  0  0  0  0999 V2000
  -20.5668   30.7871  -22.7238 N   0  0  0  0  0  0  0  0  0  0  0  0
  -20.1147   31.8644  -22.5561 C   0  0  0  0  0  0  0  0  0  0  0  0
  -19.5756   33.1817  -22.3736 C   0  0  0  0  0  0  0  0  0  0  0  0
  -18.2058   33.3936  -22.2709 C   0  0  0  0  0  0  0  0  0  0  0  0
  -17.6773   34.6534  -22.0927 C   0  0  0  0  0  0  0  0  0  0  0  0
  -18.4979   35.7721  -22.0073 C   0  0  0  0  0  0  0  0  0  0  0  0
  -17.7346   37.3023  -21.7778 S   0  0  0  0  0  6  0  0  0  0  0  0
  -16.2636   37.1879  -22.1278 O   0  0  0  0  0  0  0  0  0  0  0  0
  -17.8152   37.7426  -20.3216 O   0  0  0  0  0  0  0  0  0  0  0  0
  -18.4096   38.5761  -22.7143 N   0  0  0  0  0  0  0  0  0  0  0  0
  -17.3486   39.2394  -23.3909 C   0  0  0  0  0  0  0  0  0  0  0  0
  -17.7205   40.7033  -23.7560 C   0  0  0  0  0  0  0  0  0  0  0  0
  -16.6205   40.3943  -22.8419 C   0  0  0  0  0  0  0  0  0  0  0  0
  -19.8537   35.5616  -22.1093 C   0  0  0  0  0  0  0  0  0  0  0  0
  -20.3820   34.3009  -22.2878 C   0  0  0  0  0  0  0  0  0  0  0  0
  1  2  3  0
  2  3  1  0
  3  4  2  0
  4  5  1  0
  5  6  2  0
  6  7  1  0
  7  8  2  0
  7  9  2  0
  7 10  1  0
 10 11  1  0
 11 12  1  0
 12 13  1  0
  6 14  1  0
 14 15  2  0
 15  3  1  0
 13 11  1  0
M  END
$$$$
