
     RDKit          3D

 25 28  0  0  0  0  0  0  0  0999 V2000
  -20.9931   36.6824  -25.0916 F   0  0  0  0  0  0  0  0  0  0  0  0
  -20.4640   37.7084  -25.7961 C   0  0  0  0  0  0  0  0  0  0  0  0
  -21.0482   38.0922  -27.0019 C   0  0  0  0  0  0  0  0  0  0  0  0
  -20.4970   39.1353  -27.7048 C   0  0  0  0  0  0  0  0  0  0  0  0
  -19.3788   39.8028  -27.2323 C   0  0  0  0  0  0  0  0  0  0  0  0
  -18.6874   41.1326  -28.1350 Cl  0  0  0  0  0  0  0  0  0  0  0  0
  -18.8175   39.3911  -26.0204 C   0  0  0  0  0  0  0  0  0  0  0  0
  -19.3524   38.3489  -25.2987 C   0  0  0  0  0  0  0  0  0  0  0  0
  -18.7174   37.9794  -24.0327 C   0  0  0  0  0  0  0  0  0  0  0  0
  -18.2487   38.9093  -23.1850 N   0  0  0  0  0  0  0  0  0  0  0  0
  -17.6399   38.5715  -22.0046 C   0  0  0  0  0  0  0  0  0  0  0  0
  -17.1848   39.5968  -21.1339 N   0  0  0  0  0  0  0  0  0  0  0  0
  -17.2924   40.9873  -21.3794 C   0  0  0  0  0  0  0  0  0  0  0  0
  -16.9120   41.8931  -20.3826 C   0  0  0  0  0  0  0  0  0  0  0  0
  -16.9923   43.2509  -20.5476 C   0  0  0  0  0  0  0  0  0  0  0  0
  -17.4636   43.7058  -21.7372 N   0  0  0  0  0  0  0  0  0  0  0  0
  -17.8371   42.8809  -22.7163 C   0  0  0  0  0  0  0  0  0  0  0  0
  -17.7638   41.5153  -22.5673 C   0  0  0  0  0  0  0  0  0  0  0  0
  -17.4905   37.2518  -21.6492 C   0  0  0  0  0  0  0  0  0  0  0  0
  -16.9228   36.8574  -20.5132 N   0  0  0  0  0  0  0  0  0  0  0  0
  -16.8206   35.5511  -20.2205 C   0  0  0  0  0  0  0  0  0  0  0  0
  -17.2986   34.5893  -21.0840 C   0  0  0  0  0  0  0  0  0  0  0  0
  -17.8686   34.9905  -22.2233 N   0  0  0  0  0  0  0  0  0  0  0  0
  -17.9767   36.2822  -22.5260 C   0  0  0  0  0  0  0  0  0  0  0  0
  -18.5618   36.7018  -23.6670 N   0  0  0  0  0  0  0  0  0  0  0  0
  1  2  1  0
  2  3  2  0
  3  4  1  0
  4  5  2  0
  5  6  1  0
  5  7  1  0
  7  8  2  0
  8  9  1  0
  9 10  2  0
 10 11  1  0
 11 12  1  0
 12 13  1  0
 13 14  2  0
 14 15  1  0
 15 16  2  0
 16 17  1  0
 17 18  2  0
 11 19  2  0
 19 20  1  0
 20 21  2  0
 21 22  1  0
 22 23  2  0
 23 24  1  0
 24 25  2  0
  8  2  1  0
 25  9  1  0
 18 13  1  0
 24 19  1  0
M  END
$$$$
