
     RDKit          3D

 21 22  0  0  0  0  0  0  0  0999 V2000
  -22.1676   16.0299  -36.9833 C   0  0  0  0  0  0  0  0  0  0  0  0
  -21.6263   15.5050  -35.8116 O   0  0  0  0  0  0  0  0  0  0  0  0
  -20.5328   15.9958  -35.1342 C   0  0  0  0  0  0  0  0  0  0  0  0
  -20.2963   17.3471  -34.9388 C   0  0  0  0  0  0  0  0  0  0  0  0
  -19.1832   17.7710  -34.2519 C   0  0  0  0  0  0  0  0  0  0  0  0
  -18.9672   19.2005  -34.0669 C   0  0  0  0  0  0  0  0  0  0  0  0
  -19.3101   19.6500  -32.6544 C   0  0  0  0  0  0  0  0  0  0  0  0
  -19.7054   20.0779  -35.0208 C   0  0  0  0  0  0  0  0  0  0  0  0
  -18.2726   16.8595  -33.7393 C   0  0  0  0  0  0  0  0  0  0  0  0
  -17.1927   17.3796  -33.0662 O   0  0  0  0  0  0  0  0  0  0  0  0
  -16.6346   16.7056  -32.0011 C   0  0  0  0  0  0  0  0  0  0  0  0
  -17.3779   16.3817  -30.8769 C   0  0  0  0  0  0  0  0  0  0  0  0
  -16.8436   15.7245  -29.8359 N   0  0  0  0  0  0  0  0  0  0  0  0
  -15.5509   15.3427  -29.8274 C   0  0  0  0  0  0  0  0  0  0  0  0
  -15.0174   14.6485  -28.7083 N   0  0  0  0  0  0  0  0  0  0  0  0
  -14.8119   15.6465  -30.9083 N   0  0  0  0  0  0  0  0  0  0  0  0
  -15.2925   16.3057  -31.9867 C   0  0  0  0  0  0  0  0  0  0  0  0
  -14.4735   16.5884  -33.1158 N   0  0  0  0  0  0  0  0  0  0  0  0
  -18.5029   15.5114  -33.9313 C   0  0  0  0  0  0  0  0  0  0  0  0
  -19.6342   15.0776  -34.6293 C   0  0  0  0  0  0  0  0  0  0  0  0
  -19.8971   13.0043  -34.8687 I   0  0  0  0  0  0  0  0  0  0  0  0
  1  2  1  0
  2  3  1  0
  3  4  2  0
  4  5  1  0
  5  6  1  0
  6  7  1  0
  6  8  1  0
  5  9  2  0
  9 10  1  0
 10 11  1  0
 11 12  2  0
 12 13  1  0
 13 14  2  0
 14 15  1  0
 14 16  1  0
 16 17  2  0
 17 18  1  0
  9 19  1  0
 19 20  2  0
 20 21  1  0
 20  3  1  0
 17 11  1  0
M  END
$$$$
