
     RDKit          3D

 11 11  0  0  0  0  0  0  0  0999 V2000
  -19.3070   32.2958  -21.9249 O   0  0  0  0  0  0  0  0  0  0  0  0
  -19.7943   33.3714  -22.3733 C   0  0  0  0  0  0  0  0  0  0  0  0
  -21.0651   33.2835  -22.9223 O   0  0  0  0  0  0  0  0  0  0  0  0
  -19.0461   34.6200  -22.3068 C   0  0  0  0  0  0  0  0  0  0  0  0
  -17.6785   34.5942  -22.1549 C   0  0  0  0  0  0  0  0  0  0  0  0
  -16.9480   35.7738  -22.0895 C   0  0  0  0  0  0  0  0  0  0  0  0
  -17.5564   37.0061  -22.1730 C   0  0  0  0  0  0  0  0  0  0  0  0
  -16.8257   38.2014  -22.1077 O   0  0  0  0  0  0  0  0  0  0  0  0
  -18.9269   37.0165  -22.3250 C   0  0  0  0  0  0  0  0  0  0  0  0
  -19.5543   38.2575  -22.4107 O   0  0  0  0  0  0  0  0  0  0  0  0
  -19.6742   35.8428  -22.3924 C   0  0  0  0  0  0  0  0  0  0  0  0
  1  2  2  0
  2  3  1  0
  2  4  1  0
  4  5  2  0
  5  6  1  0
  6  7  2  0
  7  8  1  0
  7  9  1  0
  9 10  1  0
  9 11  2  0
 11  4  1  0
M  END
$$$$
