
     RDKit          3D

  8  7  0  0  0  0  0  0  0  0999 V2000
  -12.7565   -4.2437  -34.8549 N   0  0  0  0  0  0  0  0  0  0  0  0
  -12.9432   -2.8028  -35.0785 C   0  0  0  0  0  0  0  0  0  0  0  0
  -12.2944   -2.0985  -33.9266 C   0  0  0  0  0  0  0  0  0  0  0  0
  -13.2562   -1.3161  -33.0875 C   0  0  0  0  0  0  0  0  0  0  0  0
  -12.5981   -0.1479  -32.4258 C   0  0  0  0  0  0  0  0  0  0  0  0
  -13.5667    0.7040  -31.6436 C   0  0  0  0  0  0  0  0  0  0  0  0
  -12.7482    1.8239  -31.0084 C   0  0  0  0  0  0  0  0  0  0  0  0
  -13.5642    2.7542  -30.2816 N   0  0  0  0  0  0  0  0  0  0  0  0
  1  2  1  0
  2  3  1  0
  3  4  1  0
  4  5  1  0
  5  6  1  0
  6  7  1  0
  7  8  1  0
M  END
$$$$
