
     RDKit          3D

 32 35  0  0  0  0  0  0  0  0999 V2000
  -18.7103   35.1648  -20.5606 C   0  0  0  0  0  0  0  0  0  0  0  0
  -18.5985   36.2148  -19.6189 O   0  0  0  0  0  0  0  0  0  0  0  0
  -18.3262   37.4865  -20.1130 C   0  0  0  0  0  0  0  0  0  0  0  0
  -17.4698   37.6975  -21.1711 C   0  0  0  0  0  0  0  0  0  0  0  0
  -17.2049   38.9832  -21.6581 C   0  0  0  0  0  0  0  0  0  0  0  0
  -17.8466   40.0172  -21.0208 C   0  0  0  0  0  0  0  0  0  0  0  0
  -17.5905   41.4523  -21.5079 C   0  0  0  0  0  0  0  0  0  0  0  0
  -17.7931   41.3786  -22.9742 C   0  0  0  0  0  0  0  0  0  0  0  0
  -19.0510   41.1045  -23.5502 N   0  0  0  0  0  0  0  0  0  0  0  0
  -19.5868   41.4466  -24.8004 C   0  0  0  0  0  0  0  0  0  0  0  0
  -19.3725   42.5671  -25.2642 O   0  0  0  0  0  0  0  0  0  0  0  0
  -20.4113   40.5415  -25.6267 C   0  0  0  0  0  0  0  0  0  0  0  0
  -21.7279   40.8571  -25.8983 C   0  0  0  0  0  0  0  0  0  0  0  0
  -22.5752   40.0800  -26.6573 C   0  0  0  0  0  0  0  0  0  0  0  0
  -22.0962   38.9153  -27.1841 C   0  0  0  0  0  0  0  0  0  0  0  0
  -22.9567   38.0996  -27.9705 N   0  0  0  0  0  0  0  0  0  0  0  0
  -23.8690   38.6417  -28.8885 C   0  0  0  0  0  0  0  0  0  0  0  0
  -24.0327   39.8836  -28.9057 O   0  0  0  0  0  0  0  0  0  0  0  0
  -24.6196   37.7683  -29.8139 C   0  0  0  0  0  0  0  0  0  0  0  0
  -25.5437   38.1501  -30.7416 C   0  0  0  0  0  0  0  0  0  0  0  0
  -25.9789   37.0099  -31.3701 C   0  0  0  0  0  0  0  0  0  0  0  0
  -25.2846   35.9708  -30.7820 C   0  0  0  0  0  0  0  0  0  0  0  0
  -24.4984   36.4792  -29.8718 O   0  0  0  0  0  0  0  0  0  0  0  0
  -20.7879   38.5526  -26.9435 C   0  0  0  0  0  0  0  0  0  0  0  0
  -19.9486   39.3683  -26.1643 C   0  0  0  0  0  0  0  0  0  0  0  0
  -16.1312   41.7104  -21.2169 C   0  0  0  0  0  0  0  0  0  0  0  0
  -15.8725   43.1421  -20.7987 C   0  0  0  0  0  0  0  0  0  0  0  0
  -16.7471   43.4093  -19.7192 O   0  0  0  0  0  0  0  0  0  0  0  0
  -17.9746   43.6707  -20.3622 C   0  0  0  0  0  0  0  0  0  0  0  0
  -18.5121   42.3330  -20.7815 C   0  0  0  0  0  0  0  0  0  0  0  0
  -18.7095   39.8561  -19.9616 C   0  0  0  0  0  0  0  0  0  0  0  0
  -18.9529   38.5793  -19.5018 C   0  0  0  0  0  0  0  0  0  0  0  0
  1  2  1  0
  2  3  1  0
  3  4  2  0
  4  5  1  0
  5  6  2  0
  6  7  1  0
  7  8  1  0
  8  9  1  0
  9 10  1  0
 10 11  2  0
 10 12  1  0
 12 13  2  0
 13 14  1  0
 14 15  2  0
 15 16  1  0
 16 17  1  0
 17 18  2  0
 17 19  1  0
 19 20  2  0
 20 21  1  0
 21 22  2  0
 22 23  1  0
 15 24  1  0
 24 25  2  0
  7 26  1  0
 26 27  1  0
 27 28  1  0
 28 29  1  0
 29 30  1  0
  6 31  1  0
 31 32  2  0
 32  3  1  0
 30  7  1  0
 25 12  1  0
 23 19  1  0
M  END
$$$$
