
     RDKit          3D

  4  3  0  0  0  0  0  0  0  0999 V2000
  -18.9508   35.3092  -22.4059 N   0  0  0  0  0  0  0  0  0  0  0  0
  -18.7942   33.8947  -22.3757 C   0  0  0  0  0  0  0  0  0  0  0  0
  -17.6138   33.2238  -22.7662 N   0  0  0  0  0  0  0  0  0  0  0  0
  -20.0346   32.9746  -21.8648 S   0  0  0  0  0  0  0  0  0  0  0  0
  1  2  1  0
  2  3  1  0
  2  4  2  0
M  END
$$$$
