
     RDKit          3D

 15 16  0  0  0  0  0  0  0  0999 V2000
  -25.5160   20.9404  -24.9799 C   0  0  0  0  0  0  0  0  0  0  0  0
  -25.3905   19.5917  -25.3723 O   0  0  0  0  0  0  0  0  0  0  0  0
  -26.4157   19.0057  -26.0925 C   0  0  0  0  0  0  0  0  0  0  0  0
  -26.7053   19.4202  -27.3961 C   0  0  0  0  0  0  0  0  0  0  0  0
  -27.7245   18.8390  -28.1149 C   0  0  0  0  0  0  0  0  0  0  0  0
  -28.0649   19.1913  -29.3914 O   0  0  0  0  0  0  0  0  0  0  0  0
  -28.0153   20.4794  -29.9249 C   0  0  0  0  0  0  0  0  0  0  0  0
  -28.4486   17.8303  -27.4953 C   0  0  0  0  0  0  0  0  0  0  0  0
  -29.4872   17.2087  -28.1719 C   0  0  0  0  0  0  0  0  0  0  0  0
  -30.2027   16.2063  -27.5488 C   0  0  0  0  0  0  0  0  0  0  0  0
  -29.8487   15.8616  -26.2626 C   0  0  0  0  0  0  0  0  0  0  0  0
  -30.4681   14.9439  -25.6286 O   0  0  0  0  0  0  0  0  0  0  0  0
  -28.8674   16.4650  -25.6537 O   0  0  0  0  0  0  0  0  0  0  0  0
  -28.1722   17.4147  -26.2132 C   0  0  0  0  0  0  0  0  0  0  0  0
  -27.1520   17.9957  -25.4924 C   0  0  0  0  0  0  0  0  0  0  0  0
  1  2  1  0
  2  3  1  0
  3  4  2  0
  4  5  1  0
  5  6  1  0
  6  7  1  0
  5  8  2  0
  8  9  1  0
  9 10  2  0
 10 11  1  0
 11 12  2  0
 11 13  1  0
 13 14  1  0
 14 15  2  0
 15  3  1  0
 14  8  1  0
M  END
$$$$
