
     RDKit          3D

 38 42  0  0  0  0  0  0  0  0999 V2000
  -21.5017   40.3875  -27.2129 O   0  0  0  0  0  0  0  0  0  0  0  0
  -20.4307   39.7970  -26.9080 C   0  0  0  0  0  0  0  0  0  0  0  0
  -20.0916   38.6817  -27.6177 O   0  0  0  0  0  0  0  0  0  0  0  0
  -20.5931   37.4022  -27.3560 C   0  0  0  0  0  0  0  0  0  0  0  0
  -20.6492   37.2379  -25.8415 C   0  0  0  0  0  0  0  0  0  0  0  0
  -21.0468   38.4038  -25.2211 F   0  0  0  0  0  0  0  0  0  0  0  0
  -21.5444   36.2103  -25.5886 F   0  0  0  0  0  0  0  0  0  0  0  0
  -19.3846   36.8360  -25.4495 F   0  0  0  0  0  0  0  0  0  0  0  0
  -21.9676   37.2489  -27.9695 C   0  0  0  0  0  0  0  0  0  0  0  0
  -21.7996   37.2419  -29.3417 F   0  0  0  0  0  0  0  0  0  0  0  0
  -22.4848   36.0386  -27.5563 F   0  0  0  0  0  0  0  0  0  0  0  0
  -22.8113   38.2626  -27.6137 F   0  0  0  0  0  0  0  0  0  0  0  0
  -19.5920   40.2574  -25.8679 N   0  0  0  0  0  0  0  0  0  0  0  0
  -18.3628   39.5591  -25.5958 C   0  0  0  0  0  0  0  0  0  0  0  0
  -18.0312   39.5251  -24.1204 C   0  0  0  0  0  0  0  0  0  0  0  0
  -19.3425   39.8712  -23.3954 C   0  0  0  0  0  0  0  0  0  0  0  0
  -19.1601   39.4409  -21.9856 C   0  0  0  0  0  0  0  0  0  0  0  0
  -20.4386   39.5899  -21.3840 O   0  0  0  0  0  0  0  0  0  0  0  0
  -18.8253   37.9903  -21.8614 C   0  0  0  0  0  0  0  0  0  0  0  0
  -17.5126   37.5923  -21.8526 C   0  0  0  0  0  0  0  0  0  0  0  0
  -17.2163   36.2576  -21.7420 C   0  0  0  0  0  0  0  0  0  0  0  0
  -18.2273   35.3299  -21.6410 C   0  0  0  0  0  0  0  0  0  0  0  0
  -19.5556   35.6901  -21.6461 C   0  0  0  0  0  0  0  0  0  0  0  0
  -19.8282   37.0324  -21.7578 C   0  0  0  0  0  0  0  0  0  0  0  0
  -20.3042   34.5370  -21.5301 O   0  0  0  0  0  0  0  0  0  0  0  0
  -19.4736   33.4651  -21.9135 C   0  0  0  0  0  0  0  0  0  0  0  0
  -18.1843   33.9454  -21.5215 O   0  0  0  0  0  0  0  0  0  0  0  0
  -18.2642   40.3006  -21.1826 C   0  0  0  0  0  0  0  0  0  0  0  0
  -17.2889   41.0941  -21.7400 C   0  0  0  0  0  0  0  0  0  0  0  0
  -16.4580   41.8872  -20.9471 C   0  0  0  0  0  0  0  0  0  0  0  0
  -16.5954   41.8956  -19.5711 C   0  0  0  0  0  0  0  0  0  0  0  0
  -17.5709   41.1024  -19.0123 C   0  0  0  0  0  0  0  0  0  0  0  0
  -18.3788   40.3283  -19.8126 C   0  0  0  0  0  0  0  0  0  0  0  0
  -17.4822   41.3056  -17.6479 O   0  0  0  0  0  0  0  0  0  0  0  0
  -16.3176   42.0527  -17.3427 C   0  0  0  0  0  0  0  0  0  0  0  0
  -15.9069   42.5843  -18.5744 O   0  0  0  0  0  0  0  0  0  0  0  0
  -19.5791   41.3144  -23.6469 C   0  0  0  0  0  0  0  0  0  0  0  0
  -20.0189   41.4284  -25.1172 C   0  0  0  0  0  0  0  0  0  0  0  0
  1  2  2  0
  2  3  1  0
  3  4  1  0
  4  5  1  0
  5  6  1  0
  5  7  1  0
  5  8  1  0
  4  9  1  0
  9 10  1  0
  9 11  1  0
  9 12  1  0
  2 13  1  0
 13 14  1  0
 14 15  1  0
 15 16  1  0
 16 17  1  0
 17 18  1  0
 17 19  1  0
 19 20  2  0
 20 21  1  0
 21 22  2  0
 22 23  1  0
 23 24  2  0
 23 25  1  0
 25 26  1  0
 26 27  1  0
 17 28  1  0
 28 29  2  0
 29 30  1  0
 30 31  2  0
 31 32  1  0
 32 33  2  0
 32 34  1  0
 34 35  1  0
 35 36  1  0
 16 37  1  0
 37 38  1  0
 38 13  1  0
 24 19  1  0
 33 28  1  0
 27 22  1  0
 36 31  1  0
M  END
$$$$
