
     RDKit          3D

 21 24  0  0  0  0  0  0  0  0999 V2000
  -14.2074   13.3330  -30.7065 C   0  0  0  0  0  0  0  0  0  0  0  0
  -15.4792   13.8646  -30.7137 C   0  0  0  0  0  0  0  0  0  0  0  0
  -15.7914   14.9233  -31.5820 C   0  0  0  0  0  0  0  0  0  0  0  0
  -14.8382   15.4386  -32.4301 C   0  0  0  0  0  0  0  0  0  0  0  0
  -15.1402   16.5291  -33.3447 C   0  0  0  0  0  0  0  0  0  0  0  0
  -14.2405   17.3078  -33.9675 N   0  0  0  0  0  0  0  0  0  0  0  0
  -14.8423   18.2010  -34.7227 N   0  0  0  0  0  0  0  0  0  0  0  0
  -16.1584   17.9960  -34.5859 C   0  0  0  0  0  0  0  0  0  0  0  0
  -16.4110   16.9445  -33.7209 C   0  0  0  0  0  0  0  0  0  0  0  0
  -17.7140   16.4202  -33.3237 C   0  0  0  0  0  0  0  0  0  0  0  0
  -18.5607   17.1196  -32.5066 C   0  0  0  0  0  0  0  0  0  0  0  0
  -19.7960   16.6094  -32.1299 C   0  0  0  0  0  0  0  0  0  0  0  0
  -20.1532   15.3974  -32.5884 N   0  0  0  0  0  0  0  0  0  0  0  0
  -19.3750   14.6560  -33.3922 C   0  0  0  0  0  0  0  0  0  0  0  0
  -19.8151   13.4206  -33.8197 C   0  0  0  0  0  0  0  0  0  0  0  0
  -18.9735   12.6781  -34.6572 C   0  0  0  0  0  0  0  0  0  0  0  0
  -17.7448   13.1691  -35.0403 C   0  0  0  0  0  0  0  0  0  0  0  0
  -17.3496   14.4205  -34.5807 C   0  0  0  0  0  0  0  0  0  0  0  0
  -18.1512   15.1771  -33.7567 C   0  0  0  0  0  0  0  0  0  0  0  0
  -13.6029   14.9090  -32.4106 N   0  0  0  0  0  0  0  0  0  0  0  0
  -13.2858   13.8803  -31.5719 C   0  0  0  0  0  0  0  0  0  0  0  0
  1  2  2  0
  2  3  1  0
  3  4  2  0
  4  5  1  0
  5  6  2  0
  6  7  1  0
  7  8  1  0
  8  9  2  0
  9 10  1  0
 10 11  2  0
 11 12  1  0
 12 13  2  0
 13 14  1  0
 14 15  2  0
 15 16  1  0
 16 17  2  0
 17 18  1  0
 18 19  2  0
  4 20  1  0
 20 21  2  0
 21  1  1  0
  9  5  1  0
 19 10  1  0
 19 14  1  0
M  END
$$$$
