
     RDKit          3D

 27 29  0  0  0  0  0  0  0  0999 V2000
  -17.4466   18.3934  -37.5347 C   0  0  0  0  0  0  0  0  0  0  0  0
  -18.6494   18.5989  -36.8182 O   0  0  0  0  0  0  0  0  0  0  0  0
  -19.3379   17.5656  -36.2075 C   0  0  0  0  0  0  0  0  0  0  0  0
  -19.7385   16.4702  -36.9347 C   0  0  0  0  0  0  0  0  0  0  0  0
  -20.4240   15.4459  -36.3166 C   0  0  0  0  0  0  0  0  0  0  0  0
  -20.6997   15.5416  -34.9560 C   0  0  0  0  0  0  0  0  0  0  0  0
  -21.4258   14.4591  -34.2963 C   0  0  0  0  0  0  0  0  0  0  0  0
  -22.6471   14.0696  -34.7902 C   0  0  0  0  0  0  0  0  0  0  0  0
  -23.3974   13.0582  -34.2285 C   0  0  0  0  0  0  0  0  0  0  0  0
  -22.9114   12.3969  -33.1173 C   0  0  0  0  0  0  0  0  0  0  0  0
  -21.6887   12.7812  -32.6166 C   0  0  0  0  0  0  0  0  0  0  0  0
  -20.9384   13.7985  -33.1849 C   0  0  0  0  0  0  0  0  0  0  0  0
  -20.2779   16.6649  -34.2556 C   0  0  0  0  0  0  0  0  0  0  0  0
  -19.5913   17.7036  -34.8468 C   0  0  0  0  0  0  0  0  0  0  0  0
  -19.1653   18.8391  -34.1470 N   0  0  0  0  0  0  0  0  0  0  0  0
  -18.5141   18.7906  -32.5718 S   0  0  0  0  0  6  0  0  0  0  0  0
  -18.0289   20.1399  -32.1225 O   0  0  0  0  0  0  0  0  0  0  0  0
  -19.5594   18.2520  -31.6139 O   0  0  0  0  0  0  0  0  0  0  0  0
  -17.1371   17.7036  -32.4642 C   0  0  0  0  0  0  0  0  0  0  0  0
  -17.0783   16.6610  -31.5613 C   0  0  0  0  0  0  0  0  0  0  0  0
  -15.9900   15.8170  -31.4864 C   0  0  0  0  0  0  0  0  0  0  0  0
  -15.9715   14.5050  -30.3148 Cl  0  0  0  0  0  0  0  0  0  0  0  0
  -14.9057   15.9838  -32.3205 C   0  0  0  0  0  0  0  0  0  0  0  0
  -14.9494   17.0207  -33.2279 C   0  0  0  0  0  0  0  0  0  0  0  0
  -13.5887   17.2500  -34.2922 Cl  0  0  0  0  0  0  0  0  0  0  0  0
  -16.0388   17.8617  -33.2992 C   0  0  0  0  0  0  0  0  0  0  0  0
  -16.0805   18.9152  -34.2229 O   0  0  0  0  0  0  0  0  0  0  0  0
  1  2  1  0
  2  3  1  0
  3  4  2  0
  4  5  1  0
  5  6  2  0
  6  7  1  0
  7  8  2  0
  8  9  1  0
  9 10  2  0
 10 11  1  0
 11 12  2  0
  6 13  1  0
 13 14  2  0
 14 15  1  0
 15 16  1  0
 16 17  2  0
 16 18  2  0
 16 19  1  0
 19 20  2  0
 20 21  1  0
 21 22  1  0
 21 23  2  0
 23 24  1  0
 24 25  1  0
 24 26  2  0
 26 27  1  0
 14  3  1  0
 26 19  1  0
 12  7  1  0
M  END
$$$$
