
     RDKit          3D

 21 23  0  0  0  0  0  0  0  0999 V2000
  -16.5467   41.5541  -21.3897 Cl  0  0  0  0  0  0  0  0  0  0  0  0
  -19.6930   43.2645  -20.8858 O   0  0  0  0  0  0  0  0  0  0  0  0
  -18.6812   42.5417  -21.0649 C   0  0  0  0  0  0  0  0  0  0  0  0
  -18.8756   41.2656  -21.4436 N   0  0  0  0  0  0  0  0  0  0  0  0
  -17.7968   40.4674  -21.6426 C   0  0  0  0  0  0  0  0  0  0  0  0
  -17.9423   39.0554  -22.0594 C   0  0  2  0  0  0  0  0  0  0  0  0
  -18.2661   38.8872  -23.5090 C   0  0  0  0  0  0  0  0  0  0  0  0
  -19.2829   37.7669  -23.5262 C   0  0  0  0  0  0  0  0  0  0  0  0
  -19.1185   37.1436  -22.1389 C   0  0  0  0  0  0  0  0  0  0  0  0
  -18.9658   38.3521  -21.3120 N   0  0  0  0  0  0  0  0  0  0  0  0
  -16.5639   40.9775  -21.4547 N   0  0  0  0  0  0  0  0  0  0  0  0
  -16.3309   42.2426  -21.0780 C   0  0  0  0  0  0  0  0  0  0  0  0
  -17.4176   43.0687  -20.8711 C   0  0  0  0  0  0  0  0  0  0  0  0
  -16.9308   44.2281  -20.5173 O   0  0  0  0  0  0  0  0  0  0  0  0
  -15.6153   44.2203  -20.4780 C   0  0  0  0  0  0  0  0  0  0  0  0
  -14.6394   45.1554  -20.1742 C   0  0  0  0  0  0  0  0  0  0  0  0
  -13.3009   44.8589  -20.2185 C   0  0  0  0  0  0  0  0  0  0  0  0
  -12.8475   43.5863  -20.5757 C   0  0  0  0  0  0  0  0  0  0  0  0
  -11.1530   43.2231  -20.6283 Cl  0  0  0  0  0  0  0  0  0  0  0  0
  -13.8229   42.6653  -20.8754 C   0  0  0  0  0  0  0  0  0  0  0  0
  -15.1674   42.9536  -20.8337 C   0  0  0  0  0  0  0  0  0  0  0  0
  2  3  2  0
  3  4  1  0
  4  5  1  0
  6  5  1  1
  6  7  1  0
  7  8  1  0
  8  9  1  0
  9 10  1  0
  5 11  2  0
 11 12  1  0
 12 13  2  0
 13 14  1  0
 14 15  1  0
 15 16  2  0
 16 17  1  0
 17 18  2  0
 18 19  1  0
 18 20  1  0
 20 21  2  0
 13  3  1  0
 21 15  1  0
 10  6  1  0
 21 12  1  0
M  END
$$$$
