
     RDKit          3D

 32 34  0  0  0  0  0  0  0  0999 V2000
  -11.8962   44.1908  -19.6973 C   0  0  0  0  0  0  0  0  0  0  0  0
  -12.9633   44.2764  -20.2456 C   0  0  0  0  0  0  0  0  0  0  0  0
  -14.2625   44.3582  -20.8984 C   0  0  0  0  0  0  0  0  0  0  0  0
  -14.7430   45.5937  -21.3196 C   0  0  0  0  0  0  0  0  0  0  0  0
  -15.9559   45.6799  -21.9486 C   0  0  0  0  0  0  0  0  0  0  0  0
  -16.7128   44.5218  -22.1674 C   0  0  0  0  0  0  0  0  0  0  0  0
  -16.2805   43.2871  -21.7690 C   0  0  0  0  0  0  0  0  0  0  0  0
  -17.0098   42.0872  -21.9608 N   0  0  0  0  0  0  0  0  0  0  0  0
  -17.4388   41.2494  -20.9288 C   0  0  0  0  0  0  0  0  0  0  0  0
  -17.3581   41.6026  -19.6252 N   0  0  0  0  0  0  0  0  0  0  0  0
  -17.7707   40.8496  -18.6090 C   0  0  0  0  0  0  0  0  0  0  0  0
  -18.3097   39.6429  -18.9010 N   0  0  0  0  0  0  0  0  0  0  0  0
  -18.4304   39.2074  -20.1631 C   0  0  0  0  0  0  0  0  0  0  0  0
  -18.9811   37.9804  -20.4550 C   0  0  0  0  0  0  0  0  0  0  0  0
  -19.1334   37.4820  -21.7100 C   0  0  0  0  0  0  0  0  0  0  0  0
  -19.6967   36.2328  -21.9708 O   0  0  0  0  0  0  0  0  0  0  0  0
  -18.8159   35.1244  -21.9646 C   0  0  0  0  0  0  0  0  0  0  0  0
  -18.6979   38.2762  -22.7814 C   0  0  0  0  0  0  0  0  0  0  0  0
  -18.8159   37.8515  -24.0438 O   0  0  0  0  0  0  0  0  0  0  0  0
  -19.6718   37.9971  -25.0876 C   0  0  0  0  0  0  0  0  0  0  0  0
  -19.1970   38.6274  -26.3459 C   0  0  0  0  0  0  0  0  0  0  0  0
  -19.7316   38.0028  -27.6128 C   0  0  0  0  0  0  0  0  0  0  0  0
  -21.2061   38.2401  -27.8257 C   0  0  0  0  0  0  0  0  0  0  0  0
  -21.6872   37.7868  -29.1529 C   0  0  0  0  0  0  0  0  0  0  0  0
  -23.1172   38.1276  -29.4717 C   0  0  0  0  0  0  0  0  0  0  0  0
  -23.3719   39.5681  -29.6595 C   0  0  0  0  0  0  0  0  0  0  0  0
  -22.6074   40.3285  -30.2951 O   0  0  0  0  0  0  0  0  0  0  0  0
  -24.5382   40.1535  -29.1020 N   0  0  0  0  0  0  0  0  0  0  0  0
  -24.8129   41.4774  -29.3006 O   0  0  0  0  0  0  0  0  0  0  0  0
  -18.1406   39.5167  -22.4915 C   0  0  0  0  0  0  0  0  0  0  0  0
  -17.9903   40.0158  -21.2078 C   0  0  0  0  0  0  0  0  0  0  0  0
  -15.0378   43.2524  -21.1329 C   0  0  0  0  0  0  0  0  0  0  0  0
  1  2  3  0
  2  3  1  0
  3  4  2  0
  4  5  1  0
  5  6  2  0
  6  7  1  0
  7  8  1  0
  8  9  1  0
  9 10  2  0
 10 11  1  0
 11 12  2  0
 12 13  1  0
 13 14  2  0
 14 15  1  0
 15 16  1  0
 16 17  1  0
 15 18  2  0
 18 19  1  0
 19 20  1  0
 20 21  1  0
 21 22  1  0
 22 23  1  0
 23 24  1  0
 24 25  1  0
 25 26  1  0
 26 27  2  0
 26 28  1  0
 28 29  1  0
 18 30  1  0
 30 31  2  0
  7 32  2  0
 32  3  1  0
 31  9  1  0
 31 13  1  0
M  END
$$$$
