
     RDKit          3D

 29 32  0  0  0  0  0  0  0  0999 V2000
  -27.8625   25.4473  -31.5616 C   0  0  0  0  0  0  0  0  0  0  0  0
  -28.4821   24.1640  -32.0690 C   0  0  1  0  0  0  0  0  0  0  0  0
  -27.4108   23.4748  -32.9250 C   0  0  0  0  0  0  0  0  0  0  0  0
  -26.4812   23.1256  -31.9531 O   0  0  0  0  0  0  0  0  0  0  0  0
  -27.1361   22.8055  -30.7924 C   0  0  2  0  0  0  0  0  0  0  0  0
  -27.0457   21.3410  -30.5355 C   0  0  0  0  0  0  0  0  0  0  0  0
  -28.0116   20.8042  -29.6206 N   0  0  0  0  0  0  0  0  0  0  0  0
  -27.7534   19.6520  -28.9772 C   0  0  0  0  0  0  0  0  0  0  0  0
  -28.6259   19.0474  -28.0793 C   0  0  0  0  0  0  0  0  0  0  0  0
  -28.2050   17.7984  -27.4597 C   0  0  0  0  0  0  0  0  0  0  0  0
  -27.7141   16.8776  -28.2125 O   0  0  0  0  0  0  0  0  0  0  0  0
  -28.2849   17.4949  -26.0881 N   0  0  0  0  0  0  0  0  0  0  0  0
  -28.2590   16.1350  -25.5848 C   0  0  0  0  0  0  0  0  0  0  0  0
  -26.9019   15.6593  -25.2427 C   0  0  0  0  0  0  0  0  0  0  0  0
  -26.1508   15.0097  -26.1794 C   0  0  0  0  0  0  0  0  0  0  0  0
  -24.8685   14.5794  -25.8173 C   0  0  0  0  0  0  0  0  0  0  0  0
  -24.3668   14.7997  -24.5527 C   0  0  0  0  0  0  0  0  0  0  0  0
  -23.1331   14.3934  -24.1821 F   0  0  0  0  0  0  0  0  0  0  0  0
  -25.1450   15.4619  -23.6137 C   0  0  0  0  0  0  0  0  0  0  0  0
  -26.4099   15.8906  -23.9587 C   0  0  0  0  0  0  0  0  0  0  0  0
  -27.2185   16.5393  -23.0976 F   0  0  0  0  0  0  0  0  0  0  0  0
  -29.8118   19.6820  -27.8536 C   0  0  0  0  0  0  0  0  0  0  0  0
  -30.6569   19.2314  -27.0764 O   0  0  0  0  0  0  0  0  0  0  0  0
  -30.0958   20.8588  -28.4991 C   0  0  0  0  0  0  0  0  0  0  0  0
  -31.2814   21.5560  -28.3164 O   0  0  0  0  0  0  0  0  0  0  0  0
  -29.1771   21.4122  -29.3875 C   0  0  0  0  0  0  0  0  0  0  0  0
  -29.4556   22.6697  -30.0774 C   0  0  0  0  0  0  0  0  0  0  0  0
  -30.5340   23.2846  -29.8985 O   0  0  0  0  0  0  0  0  0  0  0  0
  -28.5246   23.2404  -30.9704 N   0  0  0  0  0  0  0  0  0  0  0  0
  2  1  1  1
  2  3  1  0
  3  4  1  0
  4  5  1  0
  5  6  1  6
  6  7  1  0
  7  8  1  0
  8  9  2  0
  9 10  1  0
 10 11  2  0
 10 12  1  0
 12 13  1  0
 13 14  1  0
 14 15  2  0
 15 16  1  0
 16 17  2  0
 17 18  1  0
 17 19  1  0
 19 20  2  0
 20 21  1  0
  9 22  1  0
 22 23  2  0
 22 24  1  0
 24 25  1  0
 24 26  2  0
 26 27  1  0
 27 28  2  0
 27 29  1  0
 29  2  1  0
 29  5  1  0
 26  7  1  0
 20 14  1  0
M  END
$$$$
