
     RDKit          3D

 21 20  0  0  0  0  0  0  0  0999 V2000
  -17.9481   40.4759  -24.7467 C   0  0  0  0  0  0  0  0  0  0  0  0
  -19.0145   39.8005  -23.9617 C   0  0  0  0  0  0  0  0  0  0  0  0
  -18.6284   39.2318  -22.7108 N   0  0  0  0  0  0  0  0  0  0  0  0
  -18.6374   37.8106  -22.6013 C   0  0  0  0  0  0  0  0  0  0  0  0
  -17.5232   37.0999  -22.3349 N   0  0  0  0  0  0  0  0  0  0  0  0
  -17.4932   35.7803  -22.2277 C   0  0  0  0  0  0  0  0  0  0  0  0
  -16.2599   35.1302  -21.9440 N   0  0  0  0  0  0  0  0  0  0  0  0
  -18.6750   35.0740  -22.3979 C   0  0  0  0  0  0  0  0  0  0  0  0
  -18.6107   33.6305  -22.2766 C   0  0  0  0  0  0  0  0  0  0  0  0
  -17.5393   33.0296  -22.0357 O   0  0  0  0  0  0  0  0  0  0  0  0
  -19.8111   32.8903  -22.4395 N   0  0  0  0  0  0  0  0  0  0  0  0
  -19.8478   31.4690  -22.3390 C   0  0  0  0  0  0  0  0  0  0  0  0
  -18.7373   30.8545  -22.0893 N   0  0  0  0  0  0  0  0  0  0  0  0
  -21.0439   30.7615  -22.5062 N   0  0  0  0  0  0  0  0  0  0  0  0
  -19.8150   35.7355  -22.6653 N   0  0  0  0  0  0  0  0  0  0  0  0
  -19.7910   37.0771  -22.7639 C   0  0  0  0  0  0  0  0  0  0  0  0
  -21.2677   37.9793  -23.1124 Cl  0  0  0  0  0  0  0  0  0  0  0  0
  -18.2341   40.0019  -21.5722 C   0  0  0  0  0  0  0  0  0  0  0  0
  -19.2882   40.9898  -21.1203 C   0  0  0  0  0  0  0  0  0  0  0  0
  -16.8898   40.6081  -21.8034 C   0  0  0  0  0  0  0  0  0  0  0  0
  -18.7453   36.3344  -22.4114 Cl  0  0  0  0  0  0  0  0  0  0  0  0
  1  2  1  0
  2  3  1  0
  3  4  1  0
  4  5  2  0
  5  6  1  0
  6  7  1  0
  6  8  2  0
  8  9  1  0
  9 10  2  0
  9 11  1  0
 11 12  1  0
 12 13  2  0
 12 14  1  0
  8 15  1  0
 15 16  2  0
 16 17  1  0
  3 18  1  0
 18 19  1  0
 18 20  1  0
 16  4  1  0
M  END
$$$$
