
     RDKit          3D

 15 16  0  0  0  0  0  0  0  0999 V2000
  -16.2581   38.7561  -21.8492 F   0  0  0  0  0  0  0  0  0  0  0  0
  -17.4097   38.1365  -21.3530 C   0  0  0  0  0  0  0  0  0  0  0  0
  -18.4684   39.0254  -21.2937 F   0  0  0  0  0  0  0  0  0  0  0  0
  -17.1121   37.7798  -20.0531 F   0  0  0  0  0  0  0  0  0  0  0  0
  -17.7398   36.9187  -22.1006 C   0  0  0  0  0  0  0  0  0  0  0  0
  -17.3587   35.6601  -21.6302 C   0  0  0  0  0  0  0  0  0  0  0  0
  -17.6634   34.5062  -22.3243 C   0  0  0  0  0  0  0  0  0  0  0  0
  -18.3596   34.6387  -23.5024 C   0  0  0  0  0  0  0  0  0  0  0  0
  -18.7553   35.8818  -24.0002 C   0  0  0  0  0  0  0  0  0  0  0  0
  -18.4370   37.0193  -23.2852 C   0  0  0  0  0  0  0  0  0  0  0  0
  -18.8046   38.3195  -23.7262 N   0  0  0  0  0  0  0  0  0  0  0  0
  -20.0490   38.8625  -23.7899 C   0  0  0  0  0  0  0  0  0  0  0  0
  -19.9588   40.1506  -24.2770 C   0  0  0  0  0  0  0  0  0  0  0  0
  -18.6481   40.3551  -24.4977 N   0  0  0  0  0  0  0  0  0  0  0  0
  -17.9400   39.2424  -24.1637 C   0  0  0  0  0  0  0  0  0  0  0  0
  1  2  1  0
  2  3  1  0
  2  4  1  0
  2  5  1  0
  5  6  2  0
  6  7  1  0
  7  8  2  0
  8  9  1  0
  9 10  2  0
 10 11  1  0
 11 12  1  0
 12 13  2  0
 13 14  1  0
 14 15  2  0
 10  5  1  0
 15 11  1  0
M  END
$$$$
