
     RDKit          3D

 28 31  0  0  0  0  0  0  0  0999 V2000
  -23.2135   14.7461  -38.2531 C   0  0  0  0  0  0  0  0  0  0  0  0
  -23.5407   16.1856  -37.9293 C   0  0  0  0  0  0  0  0  0  0  0  0
  -25.0325   16.3750  -37.7897 C   0  0  0  0  0  0  0  0  0  0  0  0
  -23.0607   17.1145  -39.0194 C   0  0  0  0  0  0  0  0  0  0  0  0
  -22.9345   18.3560  -38.2855 N   0  0  0  0  0  0  0  0  0  0  0  0
  -22.4627   17.9756  -36.9797 C   0  0  0  0  0  0  0  0  0  0  0  0
  -21.7663   18.6464  -35.9933 C   0  0  0  0  0  0  0  0  0  0  0  0
  -21.4118   18.0649  -34.7982 C   0  0  0  0  0  0  0  0  0  0  0  0
  -20.6813   18.8351  -33.8135 N   0  0  0  0  0  0  0  0  0  0  0  0
  -19.2428   18.8047  -33.8571 C   0  0  0  0  0  0  0  0  0  0  0  0
  -18.7830   18.0669  -34.7694 O   0  0  0  0  0  0  0  0  0  0  0  0
  -18.4906   19.5751  -32.9096 C   0  0  0  0  0  0  0  0  0  0  0  0
  -18.9994   20.7967  -32.4567 C   0  0  0  0  0  0  0  0  0  0  0  0
  -18.3183   21.5954  -31.5424 C   0  0  0  0  0  0  0  0  0  0  0  0
  -17.1116   21.1289  -31.0980 C   0  0  0  0  0  0  0  0  0  0  0  0
  -16.6378   19.9700  -31.5330 N   0  0  0  0  0  0  0  0  0  0  0  0
  -17.2838   19.1678  -32.4279 C   0  0  0  0  0  0  0  0  0  0  0  0
  -16.6861   17.9494  -32.8081 N   0  0  0  0  0  0  0  0  0  0  0  0
  -15.3755   17.4910  -32.3219 C   0  0  0  0  0  0  0  0  0  0  0  0
  -14.5294   17.2096  -33.4967 C   0  0  0  0  0  0  0  0  0  0  0  0
  -13.7474   18.1431  -34.1321 C   0  0  0  0  0  0  0  0  0  0  0  0
  -12.9746   17.8571  -35.2613 C   0  0  0  0  0  0  0  0  0  0  0  0
  -13.0086   16.6006  -35.7363 N   0  0  0  0  0  0  0  0  0  0  0  0
  -13.7430   15.6411  -35.1722 C   0  0  0  0  0  0  0  0  0  0  0  0
  -14.4982   15.9276  -34.0666 C   0  0  0  0  0  0  0  0  0  0  0  0
  -21.7523   16.7592  -34.5467 C   0  0  0  0  0  0  0  0  0  0  0  0
  -22.4482   16.0754  -35.5221 C   0  0  0  0  0  0  0  0  0  0  0  0
  -22.8097   16.6663  -36.7388 C   0  0  0  0  0  0  0  0  0  0  0  0
  1  2  1  0
  2  3  1  0
  2  4  1  0
  4  5  1  0
  5  6  1  0
  6  7  2  0
  7  8  1  0
  8  9  1  0
  9 10  1  0
 10 11  2  0
 10 12  1  0
 12 13  2  0
 13 14  1  0
 14 15  2  0
 15 16  1  0
 16 17  2  0
 17 18  1  0
 18 19  1  0
 19 20  1  0
 20 21  2  0
 21 22  1  0
 22 23  2  0
 23 24  1  0
 24 25  2  0
  8 26  2  0
 26 27  1  0
 27 28  2  0
 28  2  1  0
 28  6  1  0
 17 12  1  0
 25 20  1  0
M  END
$$$$
