
     RDKit          3D

 18 18  0  0  0  0  0  0  0  0999 V2000
  -14.4131   44.4200  -20.4751 C   0  0  0  0  0  0  0  0  0  0  0  0
  -14.7833   43.1028  -20.6691 O   0  0  0  0  0  0  0  0  0  0  0  0
  -16.1029   42.7854  -21.2408 C   0  0  0  0  0  0  0  0  0  0  0  0
  -16.8973   43.7945  -21.5291 C   0  0  0  0  0  0  0  0  0  0  0  0
  -18.1772   43.4209  -22.0858 C   0  0  0  0  0  0  0  0  0  0  0  0
  -18.4007   42.1014  -22.2464 C   0  0  0  0  0  0  0  0  0  0  0  0
  -17.6048   41.0305  -21.9654 C   0  0  0  0  0  0  0  0  0  0  0  0
  -17.8108   39.7669  -22.1015 C   0  0  0  0  0  0  0  0  0  0  0  0
  -18.0605   38.3680  -22.2574 C   0  0  0  0  0  0  0  0  0  0  0  0
  -18.2896   37.1422  -22.3997 C   0  0  0  0  0  0  0  0  0  0  0  0
  -17.3867   36.0748  -22.4506 C   0  0  0  0  0  0  0  0  0  0  0  0
  -17.6770   34.7681  -22.5826 C   0  0  0  0  0  0  0  0  0  0  0  0
  -19.0335   34.4144  -22.6954 C   0  0  0  0  0  0  0  0  0  0  0  0
  -19.9178   35.4027  -22.6552 C   0  0  0  0  0  0  0  0  0  0  0  0
  -21.4089   35.0779  -22.7306 C   0  0  0  0  0  0  0  0  0  0  0  0
  -19.6533   36.7169  -22.5171 N   0  0  0  0  0  0  0  0  0  0  0  0
  -16.3021   41.4483  -21.3890 C   0  0  0  0  0  0  0  0  0  0  0  0
  -17.6809   40.1031  -22.2518 Cl  0  0  0  0  0  0  0  0  0  0  0  0
  1  2  1  0
  2  3  1  0
  3  4  2  0
  4  5  1  0
  5  6  2  0
  6  7  1  0
  7  8  1  0
  8  9  3  0
  9 10  1  0
 10 11  2  0
 11 12  1  0
 12 13  2  0
 13 14  1  0
 14 15  1  0
 14 16  2  0
  7 17  2  0
 17  3  1  0
 16 10  1  0
M  END
$$$$
