
     RDKit          3D

 23 23  0  0  0  0  0  0  0  0999 V2000
  -31.0242   17.5274  -30.9976 C   0  0  0  0  0  0  0  0  0  0  0  0
  -30.3673   17.5196  -29.6619 C   0  0  0  0  0  0  0  0  0  0  0  0
  -30.9570   17.1790  -28.6149 O   0  0  0  0  0  0  0  0  0  0  0  0
  -29.0223   17.9157  -29.5881 N   0  0  0  0  0  0  0  0  0  0  0  0
  -28.2936   18.0993  -28.3376 C   0  0  2  0  0  0  0  0  0  0  0  0
  -28.0559   19.5423  -28.0704 C   0  0  1  0  0  0  0  0  0  0  0  0
  -29.0422   20.0245  -27.1283 N   0  0  0  0  0  0  0  0  0  0  0  0
  -30.0277   20.9918  -27.4828 C   0  0  0  0  0  0  0  0  0  0  0  0
  -30.8998   21.3021  -26.5899 N   0  0  0  0  0  0  0  0  0  0  0  0
  -30.0792   21.6045  -28.7448 N   0  0  0  0  0  0  0  0  0  0  0  0
  -26.6881   19.8670  -27.6271 C   0  0  0  0  0  0  0  0  0  0  0  0
  -25.7293   19.0140  -27.3880 C   0  0  0  0  0  0  0  0  0  0  0  0
  -24.4255   19.4784  -26.9551 C   0  0  0  0  0  0  0  0  0  0  0  0
  -23.5511   18.6323  -26.6786 O   0  0  0  0  0  0  0  0  0  0  0  0
  -24.1081   20.8168  -26.8350 O   0  0  0  0  0  0  0  0  0  0  0  0
  -26.0308   17.6703  -27.5702 O   0  0  0  0  0  0  0  0  0  0  0  0
  -27.0468   17.2661  -28.4301 C   0  0  1  0  0  0  0  0  0  0  0  0
  -27.4536   15.8219  -28.2075 C   0  0  2  0  0  0  0  0  0  0  0  0
  -28.0109   15.6553  -26.9504 O   0  0  0  0  0  0  0  0  0  0  0  0
  -26.2790   14.8846  -28.3193 C   0  0  2  0  0  0  0  0  0  0  0  0
  -25.9967   14.5932  -29.6374 O   0  0  0  0  0  0  0  0  0  0  0  0
  -26.4535   13.6343  -27.4804 C   0  0  0  0  0  0  0  0  0  0  0  0
  -25.2590   12.9028  -27.6228 O   0  0  0  0  0  0  0  0  0  0  0  0
  1  2  1  0
  2  3  2  0
  2  4  1  0
  5  4  1  6
  5  6  1  0
  6  7  1  1
  7  8  1  0
  8  9  2  0
  8 10  1  0
  6 11  1  0
 11 12  2  0
 12 13  1  0
 13 14  2  0
 13 15  1  0
 12 16  1  0
 17 16  1  1
 17 18  1  0
 18 19  1  1
 18 20  1  0
 20 21  1  6
 20 22  1  0
 22 23  1  0
 17  5  1  0
M  END
$$$$
