
     RDKit          3D

 17 17  0  0  0  0  0  0  0  0999 V2000
  -21.6122   22.1560  -31.8154 N   0  0  0  0  0  0  0  0  0  0  0  0
  -21.5803   21.1530  -32.8282 C   0  0  0  0  0  0  0  0  0  0  0  0
  -22.2818   21.2931  -33.8650 O   0  0  0  0  0  0  0  0  0  0  0  0
  -20.8091   20.0320  -32.7168 O   0  0  0  0  0  0  0  0  0  0  0  0
  -20.9983   18.8990  -33.5437 C   0  0  0  0  0  0  0  0  0  0  0  0
  -20.1986   17.7158  -32.9635 C   0  0  0  0  0  0  0  0  0  0  0  0
  -18.7682   18.0673  -33.1242 C   0  0  0  0  0  0  0  0  0  0  0  0
  -17.9459   18.1381  -32.0420 O   0  0  0  0  0  0  0  0  0  0  0  0
  -16.6095   18.1649  -31.8573 C   0  0  0  0  0  0  0  0  0  0  0  0
  -15.9815   18.2557  -30.5616 N   0  0  0  0  0  0  0  0  0  0  0  0
  -15.8821   18.1074  -32.8732 O   0  0  0  0  0  0  0  0  0  0  0  0
  -20.6660   16.4785  -33.6238 C   0  0  0  0  0  0  0  0  0  0  0  0
  -19.8166   15.5354  -34.1627 C   0  0  0  0  0  0  0  0  0  0  0  0
  -20.2592   14.3692  -34.7484 C   0  0  0  0  0  0  0  0  0  0  0  0
  -21.6068   14.0847  -34.8244 C   0  0  0  0  0  0  0  0  0  0  0  0
  -22.4780   15.0122  -34.2925 C   0  0  0  0  0  0  0  0  0  0  0  0
  -22.0306   16.1765  -33.7080 C   0  0  0  0  0  0  0  0  0  0  0  0
  1  2  1  0
  2  3  2  0
  2  4  1  0
  4  5  1  0
  5  6  1  0
  6  7  1  0
  7  8  1  0
  8  9  1  0
  9 10  1  0
  9 11  2  0
  6 12  1  0
 12 13  2  0
 13 14  1  0
 14 15  2  0
 15 16  1  0
 16 17  2  0
 17 12  1  0
M  END
$$$$
