
     RDKit          3D

 23 24  0  0  0  0  0  0  0  0999 V2000
  -13.8008   -6.1360  -36.5134 C   0  0  0  0  0  0  0  0  0  0  0  0
  -13.3491   -5.1495  -35.8069 O   0  0  0  0  0  0  0  0  0  0  0  0
  -12.7660   -5.0122  -34.6563 C   0  0  0  0  0  0  0  0  0  0  0  0
  -12.3820   -3.7395  -34.0351 C   0  0  0  0  0  0  0  0  0  0  0  0
  -12.9352   -2.4395  -34.3434 C   0  0  0  0  0  0  0  0  0  0  0  0
  -12.6158   -1.2444  -33.6701 N   0  0  0  0  0  0  0  0  0  0  0  0
  -11.3573   -0.5651  -33.8136 C   0  0  0  0  0  0  0  0  0  0  0  0
  -10.5300   -0.9658  -34.6342 O   0  0  0  0  0  0  0  0  0  0  0  0
  -11.0360    0.6228  -32.9768 C   0  0  0  0  0  0  0  0  0  0  0  0
   -9.4467    1.2541  -33.4444 Cl  0  0  0  0  0  0  0  0  0  0  0  0
  -13.5303   -0.6222  -32.7597 C   0  0  0  0  0  0  0  0  0  0  0  0
  -14.5740   -0.1661  -32.7226 N   0  0  0  0  0  0  0  0  0  0  0  0
  -15.2379    0.3722  -31.7167 C   0  0  0  0  0  0  0  0  0  0  0  0
  -16.6063    0.9263  -31.8399 C   0  0  0  0  0  0  0  0  0  0  0  0
  -17.0585    1.9878  -31.0953 C   0  0  0  0  0  0  0  0  0  0  0  0
  -18.3319    2.4916  -31.2213 C   0  0  0  0  0  0  0  0  0  0  0  0
  -19.2270    1.9415  -32.1186 C   0  0  0  0  0  0  0  0  0  0  0  0
  -20.5201    2.4470  -32.2519 O   0  0  0  0  0  0  0  0  0  0  0  0
  -21.2142    2.2443  -33.4510 C   0  0  0  0  0  0  0  0  0  0  0  0
  -18.7919    0.8742  -32.8761 C   0  0  0  0  0  0  0  0  0  0  0  0
  -17.5130    0.3885  -32.7315 C   0  0  0  0  0  0  0  0  0  0  0  0
  -14.5733    0.3844  -30.5427 C   0  0  0  0  0  0  0  0  0  0  0  0
  -12.9890   -0.3989  -30.9590 S   0  0  0  0  0  0  0  0  0  0  0  0
  1  2  1  0
  2  3  1  0
  3  4  1  0
  4  5  1  0
  5  6  1  0
  6  7  1  0
  7  8  2  0
  7  9  1  0
  9 10  1  0
  6 11  1  0
 11 12  2  0
 12 13  1  0
 13 14  1  0
 14 15  2  0
 15 16  1  0
 16 17  2  0
 17 18  1  0
 18 19  1  0
 17 20  1  0
 20 21  2  0
 13 22  2  0
 22 23  1  0
 23 11  1  0
 21 14  1  0
M  END
$$$$
