
     RDKit          3D

 24 27  0  0  0  0  0  0  0  0999 V2000
  -18.4839   37.6388  -23.3718 C   0  0  0  0  0  0  0  0  0  0  0  0
  -18.2384   38.1822  -21.9963 C   0  0  0  0  0  0  0  0  0  0  0  0
  -17.8493   37.5261  -20.8995 N   0  0  0  0  0  0  0  0  0  0  0  0
  -17.7410   38.3547  -19.8625 N   0  0  0  0  0  0  0  0  0  0  0  0
  -18.0609   39.6031  -20.2502 C   0  0  0  0  0  0  0  0  0  0  0  0
  -18.1382   40.8074  -19.6834 N   0  0  0  0  0  0  0  0  0  0  0  0
  -18.5078   41.9309  -20.3593 C   0  0  0  0  0  0  0  0  0  0  0  0
  -18.8314   41.8953  -21.6960 C   0  0  0  0  0  0  0  0  0  0  0  0
  -19.2365   43.0488  -22.4824 C   0  0  0  0  0  0  0  0  0  0  0  0
  -20.4318   43.4313  -22.3637 O   0  0  0  0  0  0  0  0  0  0  0  0
  -18.3062   43.6882  -23.3329 N   0  0  0  0  0  0  0  0  0  0  0  0
  -18.5521   44.8823  -24.0995 C   0  0  0  0  0  0  0  0  0  0  0  0
  -17.3744   45.0525  -25.0278 C   0  0  0  0  0  0  0  0  0  0  0  0
  -16.4973   43.8537  -24.8509 C   0  0  0  0  0  0  0  0  0  0  0  0
  -16.9598   43.2116  -23.5399 C   0  0  1  0  0  0  0  0  0  0  0  0
  -16.0418   43.5537  -22.4339 C   0  0  0  0  0  0  0  0  0  0  0  0
  -16.3068   44.5717  -21.5439 C   0  0  0  0  0  0  0  0  0  0  0  0
  -15.4207   44.8689  -20.4996 C   0  0  0  0  0  0  0  0  0  0  0  0
  -14.2520   44.1477  -20.3310 C   0  0  0  0  0  0  0  0  0  0  0  0
  -13.1264   44.5095  -19.0255 Cl  0  0  0  0  0  0  0  0  0  0  0  0
  -13.9937   43.1309  -21.2241 C   0  0  0  0  0  0  0  0  0  0  0  0
  -14.8772   42.8393  -22.2610 C   0  0  0  0  0  0  0  0  0  0  0  0
  -18.7562   40.6377  -22.3094 C   0  0  0  0  0  0  0  0  0  0  0  0
  -18.3790   39.5164  -21.5990 C   0  0  0  0  0  0  0  0  0  0  0  0
  1  2  1  0
  2  3  2  0
  3  4  1  0
  4  5  1  0
  5  6  2  0
  6  7  1  0
  7  8  2  0
  8  9  1  0
  9 10  2  0
  9 11  1  0
 11 12  1  0
 12 13  1  0
 13 14  1  0
 14 15  1  0
 15 16  1  1
 16 17  2  0
 17 18  1  0
 18 19  2  0
 19 20  1  0
 19 21  1  0
 21 22  2  0
  8 23  1  0
 23 24  2  0
 24  2  1  0
 24  5  1  0
 15 11  1  0
 22 16  1  0
M  END
$$$$
