
     RDKit          3D

 23 25  0  0  0  0  0  0  0  0999 V2000
  -19.8663   39.6510  -25.9517 O   0  0  0  0  0  0  0  0  0  0  0  0
  -20.6939   38.7139  -25.8422 C   0  0  0  0  0  0  0  0  0  0  0  0
  -21.7646   38.7114  -26.8023 N   0  0  0  0  0  0  0  0  0  0  0  0
  -21.8357   39.6917  -27.8501 C   0  0  0  0  0  0  0  0  0  0  0  0
  -22.2517   41.0270  -27.3311 C   0  0  0  0  0  0  0  0  0  0  0  0
  -23.7553   41.2359  -27.5175 C   0  0  0  0  0  0  0  0  0  0  0  0
  -23.9690   41.4690  -28.9325 N   0  0  0  0  0  0  0  0  0  0  0  0
  -23.1414   40.5615  -29.7108 C   0  0  0  0  0  0  0  0  0  0  0  0
  -22.8435   39.2895  -28.9275 C   0  0  0  0  0  0  0  0  0  0  0  0
  -20.6815   37.6421  -24.8551 C   0  0  2  0  0  0  0  0  0  0  0  0
  -20.7158   38.4259  -23.4440 C   0  0  0  0  0  0  0  0  0  0  0  0
  -19.7821   37.6939  -22.4882 C   0  0  0  0  0  0  0  0  0  0  0  0
  -18.3444   37.5847  -22.8417 C   0  0  2  0  0  0  0  0  0  0  0  0
  -18.3108   37.9662  -24.3734 C   0  0  0  0  0  0  0  0  0  0  0  0
  -19.4506   37.0182  -24.5760 N   0  0  0  0  0  0  0  0  0  0  0  0
  -18.8614   35.8219  -24.2072 C   0  0  0  0  0  0  0  0  0  0  0  0
  -18.9986   34.6845  -24.7092 O   0  0  0  0  0  0  0  0  0  0  0  0
  -17.9979   36.1506  -23.0470 N   0  0  0  0  0  0  0  0  0  0  0  0
  -17.1600   35.3578  -22.3992 O   0  0  0  0  0  0  0  0  0  0  0  0
  -16.5356   36.0394  -21.0027 S   0  0  0  0  0  6  0  0  0  0  0  0
  -17.5291   36.8977  -20.2945 O   0  0  0  0  0  0  0  0  0  0  0  0
  -16.1981   34.8942  -20.0705 O   0  0  0  0  0  0  0  0  0  0  0  0
  -15.1575   36.9278  -21.2733 O   0  0  0  0  0  0  0  0  0  0  0  0
  1  2  2  0
  2  3  1  0
  3  4  1  0
  4  5  1  0
  5  6  1  0
  6  7  1  0
  7  8  1  0
  8  9  1  0
 10  2  1  6
 10 11  1  0
 11 12  1  0
 13 12  1  6
 13 14  1  0
 14 15  1  0
 15 16  1  0
 16 17  2  0
 16 18  1  0
 18 19  1  0
 19 20  1  0
 20 21  2  0
 20 22  2  0
 20 23  1  0
  9  4  1  0
 15 10  1  0
 18 13  1  0
M  END
$$$$
