
     RDKit          3D

 26 26  0  0  0  0  0  0  0  0999 V2000
  -15.2231   13.9388  -30.3366 C   0  0  0  0  0  0  0  0  0  0  0  0
  -15.3967   14.8133  -31.5427 C   0  0  0  0  0  0  0  0  0  0  0  0
  -14.4431   14.6326  -32.6557 C   0  0  0  0  0  0  0  0  0  0  0  0
  -14.5569   15.4642  -33.8730 C   0  0  0  0  0  0  0  0  0  0  0  0
  -13.5185   15.2270  -34.8965 C   0  0  0  0  0  0  0  0  0  0  0  0
  -13.7191   16.1307  -36.1219 C   0  0  0  0  0  0  0  0  0  0  0  0
  -12.6752   15.8903  -37.1609 C   0  0  0  0  0  0  0  0  0  0  0  0
  -11.5929   16.9499  -37.1609 C   0  0  0  0  0  0  0  0  0  0  0  0
  -11.5786   17.7532  -38.3806 C   0  0  0  0  0  0  0  0  0  0  0  0
  -10.6463   17.6493  -39.2919 C   0  0  0  0  0  0  0  0  0  0  0  0
  -10.2205   18.6707  -40.2477 C   0  0  0  0  0  0  0  0  0  0  0  0
  -10.8391   18.3570  -41.5953 C   0  0  0  0  0  0  0  0  0  0  0  0
  -12.0043   19.2379  -41.9266 C   0  0  0  0  0  0  0  0  0  0  0  0
  -12.5253   19.0612  -43.3222 C   0  0  0  0  0  0  0  0  0  0  0  0
  -13.9795   18.6444  -43.3301 C   0  0  0  0  0  0  0  0  0  0  0  0
  -14.5133   18.4361  -44.7083 C   0  0  0  0  0  0  0  0  0  0  0  0
  -15.9480   18.0069  -44.7635 C   0  0  0  0  0  0  0  0  0  0  0  0
  -16.8396   19.0241  -45.4004 C   0  0  0  0  0  0  0  0  0  0  0  0
  -17.2754   20.0114  -44.7831 O   0  0  0  0  0  0  0  0  0  0  0  0
  -17.1835   18.8306  -46.7563 N   0  0  0  0  0  0  0  0  0  0  0  0
  -18.0922   19.6123  -47.4955 C   0  0  0  0  0  0  0  0  0  0  0  0
  -18.2187   20.9568  -47.1178 C   0  0  0  0  0  0  0  0  0  0  0  0
  -19.0718   21.8272  -47.7588 C   0  0  0  0  0  0  0  0  0  0  0  0
  -19.8429   21.3878  -48.8149 C   0  0  0  0  0  0  0  0  0  0  0  0
  -19.7464   20.0824  -49.2119 C   0  0  0  0  0  0  0  0  0  0  0  0
  -18.8733   19.2291  -48.5413 C   0  0  0  0  0  0  0  0  0  0  0  0
  1  2  1  0
  2  3  1  0
  3  4  1  0
  4  5  1  0
  5  6  1  0
  6  7  1  0
  7  8  1  0
  8  9  1  0
  9 10  2  0
 10 11  1  0
 11 12  1  0
 12 13  1  0
 13 14  1  0
 14 15  1  0
 15 16  1  0
 16 17  1  0
 17 18  1  0
 18 19  2  0
 18 20  1  0
 20 21  1  0
 21 22  2  0
 22 23  1  0
 23 24  2  0
 24 25  1  0
 25 26  2  0
 26 21  1  0
M  END
$$$$
