
     RDKit          3D

 30 31  0  0  0  0  0  0  0  0999 V2000
  -16.6100   45.2079  -19.6051 C   0  0  0  0  0  0  0  0  0  0  0  0
  -16.5329   44.7981  -20.7598 C   0  0  0  0  0  0  0  0  0  0  0  0
  -16.4368   44.3350  -22.1348 C   0  0  0  0  0  0  0  0  0  0  0  0
  -15.4835   44.9549  -23.0041 C   0  0  0  0  0  0  0  0  0  0  0  0
  -15.3755   44.4652  -24.2698 C   0  0  0  0  0  0  0  0  0  0  0  0
  -16.1284   43.4059  -24.7696 C   0  0  0  0  0  0  0  0  0  0  0  0
  -17.0458   42.8404  -23.8680 C   0  0  0  0  0  0  0  0  0  0  0  0
  -17.8265   41.6796  -24.2349 N   0  0  0  0  0  0  0  0  0  0  0  0
  -17.7852   40.6418  -23.2215 C   0  0  0  0  0  0  0  0  0  0  0  0
  -16.9375   40.7652  -22.1393 N   0  0  0  0  0  0  0  0  0  0  0  0
  -16.8492   39.8605  -21.1796 C   0  0  0  0  0  0  0  0  0  0  0  0
  -17.5987   38.7421  -21.1893 N   0  0  0  0  0  0  0  0  0  0  0  0
  -18.4552   38.5696  -22.2295 C   0  0  0  0  0  0  0  0  0  0  0  0
  -19.2011   37.4053  -22.2538 C   0  0  0  0  0  0  0  0  0  0  0  0
  -20.0109   37.1721  -23.2701 C   0  0  0  0  0  0  0  0  0  0  0  0
  -20.8070   36.0474  -23.4339 O   0  0  0  0  0  0  0  0  0  0  0  0
  -20.7657   34.9720  -22.4927 C   0  0  0  0  0  0  0  0  0  0  0  0
  -19.4548   34.2679  -22.5323 C   0  0  0  0  0  0  0  0  0  0  0  0
  -19.3756   33.2748  -21.5789 O   0  0  0  0  0  0  0  0  0  0  0  0
  -19.3736   33.7167  -20.2741 C   0  0  0  0  0  0  0  0  0  0  0  0
  -20.1538   38.0946  -24.3758 C   0  0  0  0  0  0  0  0  0  0  0  0
  -20.9092   37.8415  -25.3166 O   0  0  0  0  0  0  0  0  0  0  0  0
  -21.7203   37.5712  -26.3280 C   0  0  0  0  0  0  0  0  0  0  0  0
  -20.8957   37.6502  -27.6242 C   0  0  0  0  0  0  0  0  0  0  0  0
  -21.5581   37.3545  -28.7455 O   0  0  0  0  0  0  0  0  0  0  0  0
  -22.6932   37.9937  -29.0993 C   0  0  0  0  0  0  0  0  0  0  0  0
  -19.3813   39.2643  -24.2832 C   0  0  0  0  0  0  0  0  0  0  0  0
  -18.5585   39.5105  -23.2580 C   0  0  0  0  0  0  0  0  0  0  0  0
  -17.1374   43.3270  -22.6427 C   0  0  0  0  0  0  0  0  0  0  0  0
  -18.5968   39.6316  -23.6080 Cl  0  0  0  0  0  0  0  0  0  0  0  0
  1  2  3  0
  2  3  1  0
  3  4  2  0
  4  5  1  0
  5  6  2  0
  6  7  1  0
  7  8  1  0
  8  9  1  0
  9 10  2  0
 10 11  1  0
 11 12  2  0
 12 13  1  0
 13 14  2  0
 14 15  1  0
 15 16  1  0
 16 17  1  0
 17 18  1  0
 18 19  1  0
 19 20  1  0
 15 21  2  0
 21 22  1  0
 22 23  1  0
 23 24  1  0
 24 25  1  0
 25 26  1  0
 21 27  1  0
 27 28  2  0
  7 29  2  0
 29  3  1  0
 28  9  1  0
 28 13  1  0
M  END
$$$$
