
     RDKit          3D

 27 30  0  0  0  0  0  0  0  0999 V2000
  -25.3373   16.8271  -28.1284 C   0  0  0  0  0  0  0  0  0  0  0  0
  -25.9857   17.8608  -27.3472 O   0  0  0  0  0  0  0  0  0  0  0  0
  -27.2043   18.2617  -27.8717 C   0  0  0  0  0  0  0  0  0  0  0  0
  -28.3219   17.5465  -27.4930 C   0  0  0  0  0  0  0  0  0  0  0  0
  -28.2870   16.5586  -26.5176 N   0  0  0  0  0  0  0  0  0  0  0  0
  -27.7360   15.2316  -26.8771 C   0  0  0  0  0  0  0  0  0  0  0  0
  -27.4276   14.4450  -25.6104 C   0  0  0  0  0  0  0  0  0  0  0  0
  -28.5970   14.1768  -24.8392 N   0  0  0  0  0  0  0  0  0  0  0  0
  -29.5115   15.2773  -24.8629 C   0  0  0  0  0  0  0  0  0  0  0  0
  -30.2693   15.4527  -23.5711 C   0  0  0  0  0  0  0  0  0  0  0  0
  -28.7916   16.6130  -25.1810 C   0  0  0  0  0  0  0  0  0  0  0  0
  -29.5232   17.9673  -28.0745 C   0  0  0  0  0  0  0  0  0  0  0  0
  -30.6562   17.3391  -27.7680 F   0  0  0  0  0  0  0  0  0  0  0  0
  -29.5868   19.0076  -28.9464 C   0  0  0  0  0  0  0  0  0  0  0  0
  -28.4631   19.7112  -29.3057 C   0  0  0  0  0  0  0  0  0  0  0  0
  -28.5228   20.7597  -30.1783 C   0  0  0  0  0  0  0  0  0  0  0  0
  -29.6505   21.0583  -30.6488 O   0  0  0  0  0  0  0  0  0  0  0  0
  -27.3968   21.4588  -30.5270 C   0  0  0  0  0  0  0  0  0  0  0  0
  -27.4901   22.5742  -31.4647 C   0  0  0  0  0  0  0  0  0  0  0  0
  -28.5505   22.7331  -32.0979 O   0  0  0  0  0  0  0  0  0  0  0  0
  -26.4431   23.4434  -31.6611 O   0  0  0  0  0  0  0  0  0  0  0  0
  -26.2006   21.0761  -29.9704 C   0  0  0  0  0  0  0  0  0  0  0  0
  -26.1252   20.0394  -29.1021 N   0  0  0  0  0  0  0  0  0  0  0  0
  -24.8517   19.7386  -28.4566 C   0  0  0  0  0  0  0  0  0  0  0  0
  -24.2754   20.6572  -27.4762 C   0  0  0  0  0  0  0  0  0  0  0  0
  -24.9353   19.4813  -26.9209 C   0  0  0  0  0  0  0  0  0  0  0  0
  -27.2290   19.3294  -28.7493 C   0  0  0  0  0  0  0  0  0  0  0  0
  1  2  1  0
  2  3  1  0
  3  4  2  0
  4  5  1  0
  5  6  1  0
  6  7  1  0
  7  8  1  0
  8  9  1  0
  9 10  1  0
  9 11  1  0
  4 12  1  0
 12 13  1  0
 12 14  2  0
 14 15  1  0
 15 16  1  0
 16 17  2  0
 16 18  1  0
 18 19  1  0
 19 20  2  0
 19 21  1  0
 18 22  2  0
 22 23  1  0
 23 24  1  0
 24 25  1  0
 25 26  1  0
 23 27  1  0
 27  3  1  0
 11  5  1  0
 27 15  2  0
 26 24  1  0
M  END
$$$$
