
     RDKit          3D

 20 23  0  0  0  0  0  0  0  0999 V2000
  -18.1307   34.5172  -23.9462 C   0  0  0  0  0  0  0  0  0  0  0  0
  -18.9241   34.7285  -22.6789 C   0  0  2  0  0  0  0  0  0  0  0  0
  -20.2581   35.3012  -22.9859 C   0  0  0  0  0  0  0  0  0  0  0  0
  -20.4071   36.7599  -22.9954 C   0  0  0  0  0  0  0  0  0  0  0  0
  -19.3232   37.5885  -22.3717 C   0  0  2  0  0  0  0  0  0  0  0  0
  -19.2930   38.9718  -22.8670 C   0  0  0  0  0  0  0  0  0  0  0  0
  -20.4909   39.5606  -23.2118 C   0  0  0  0  0  0  0  0  0  0  0  0
  -20.5248   40.8649  -23.6866 C   0  0  0  0  0  0  0  0  0  0  0  0
  -19.3177   41.5244  -23.7916 C   0  0  0  0  0  0  0  0  0  0  0  0
  -19.3640   42.8418  -24.2724 O   0  0  0  0  0  0  0  0  0  0  0  0
  -18.1147   40.9294  -23.4440 C   0  0  0  0  0  0  0  0  0  0  0  0
  -18.0987   39.6330  -22.9740 C   0  0  0  0  0  0  0  0  0  0  0  0
  -16.7889   39.0350  -22.6127 C   0  0  0  0  0  0  0  0  0  0  0  0
  -16.9897   37.8195  -21.6980 C   0  0  0  0  0  0  0  0  0  0  0  0
  -17.9672   36.9090  -22.3921 C   0  0  1  0  0  0  0  0  0  0  0  0
  -18.2078   35.6251  -21.6900 C   0  0  2  0  0  0  0  0  0  0  0  0
  -17.0246   34.8017  -21.3501 C   0  0  0  0  0  0  0  0  0  0  0  0
  -17.6916   33.4466  -21.1077 C   0  0  0  0  0  0  0  0  0  0  0  0
  -18.9338   33.4661  -21.9301 C   0  0  0  0  0  0  0  0  0  0  0  0
  -19.7618   32.5913  -21.9473 O   0  0  0  0  0  0  0  0  0  0  0  0
  2  1  1  6
  2  3  1  0
  3  4  1  0
  5  4  1  6
  5  6  1  0
  6  7  2  0
  7  8  1  0
  8  9  2  0
  9 10  1  0
  9 11  1  0
 11 12  2  0
 12 13  1  0
 13 14  1  0
 15 14  1  1
 15 16  1  0
 16 17  1  6
 17 18  1  0
 18 19  1  0
 19 20  2  0
 16  2  1  0
 19  2  1  0
 15  5  1  0
 12  6  1  0
M  END
$$$$
