
     RDKit          3D

 25 26  0  0  0  0  0  0  0  0999 V2000
  -27.5363   24.8638  -31.1661 C   0  0  0  0  0  0  0  0  0  0  0  0
  -27.0432   23.6395  -30.4050 C   0  0  0  0  0  0  0  0  0  0  0  0
  -25.6883   23.2953  -30.8899 C   0  0  0  0  0  0  0  0  0  0  0  0
  -27.9523   22.5994  -30.2982 N   0  0  0  0  0  0  0  0  0  0  0  0
  -27.7287   21.4447  -29.5577 C   0  0  0  0  0  0  0  0  0  0  0  0
  -28.7676   20.7203  -28.8225 C   0  0  0  0  0  0  0  0  0  0  0  0
  -28.4133   19.7833  -27.7385 C   0  0  0  0  0  0  0  0  0  0  0  0
  -27.4934   20.2007  -26.6898 C   0  0  0  0  0  0  0  0  0  0  0  0
  -27.8180   21.3329  -25.8529 N   0  0  0  0  0  0  0  0  0  0  0  0
  -26.4266   19.6363  -26.4623 O   0  0  0  0  0  0  0  0  0  0  0  0
  -29.5951   19.1304  -27.0934 C   0  0  0  0  0  0  0  0  0  0  0  0
  -29.5202   18.2439  -26.0573 C   0  0  0  0  0  0  0  0  0  0  0  0
  -30.6884   17.6923  -25.5336 C   0  0  0  0  0  0  0  0  0  0  0  0
  -31.9289   18.0213  -26.0393 C   0  0  0  0  0  0  0  0  0  0  0  0
  -32.0031   18.9054  -27.0733 C   0  0  0  0  0  0  0  0  0  0  0  0
  -30.8403   19.4447  -27.5831 C   0  0  0  0  0  0  0  0  0  0  0  0
  -27.7556   18.6178  -28.4630 C   0  0  0  0  0  0  0  0  0  0  0  0
  -28.5270   17.8693  -29.3026 C   0  0  0  0  0  0  0  0  0  0  0  0
  -27.9729   16.8031  -29.9891 C   0  0  0  0  0  0  0  0  0  0  0  0
  -26.6500   16.5179  -29.8105 C   0  0  0  0  0  0  0  0  0  0  0  0
  -25.8903   17.2881  -28.9570 C   0  0  0  0  0  0  0  0  0  0  0  0
  -26.4756   18.3341  -28.2964 N   0  0  0  0  0  0  0  0  0  0  0  0
  -28.7849   22.3768  -31.4655 C   0  0  0  0  0  0  0  0  0  0  0  0
  -29.7127   23.5248  -31.7119 C   0  0  0  0  0  0  0  0  0  0  0  0
  -27.9822   21.9938  -32.6842 C   0  0  0  0  0  0  0  0  0  0  0  0
  1  2  1  0
  2  3  1  0
  2  4  1  0
  4  5  1  0
  5  6  1  0
  6  7  1  0
  7  8  1  0
  8  9  1  0
  8 10  2  0
  7 11  1  0
 11 12  2  0
 12 13  1  0
 13 14  2  0
 14 15  1  0
 15 16  2  0
  7 17  1  0
 17 18  2  0
 18 19  1  0
 19 20  2  0
 20 21  1  0
 21 22  2  0
  4 23  1  0
 23 24  1  0
 23 25  1  0
 16 11  1  0
 22 17  1  0
M  END
$$$$
