
     RDKit          3D

 20 22  0  0  0  0  0  0  0  0999 V2000
  -27.0805   27.8202  -36.0083 C   0  0  0  0  0  0  0  0  0  0  0  0
  -27.1720   26.4094  -36.0131 O   0  0  0  0  0  0  0  0  0  0  0  0
  -26.2701   25.6991  -36.7865 C   0  0  0  0  0  0  0  0  0  0  0  0
  -26.6725   24.6289  -37.5556 C   0  0  0  0  0  0  0  0  0  0  0  0
  -25.7546   23.9309  -38.3226 C   0  0  0  0  0  0  0  0  0  0  0  0
  -24.4187   24.2660  -38.3540 C   0  0  0  0  0  0  0  0  0  0  0  0
  -23.5270   23.4788  -39.1870 C   0  0  0  0  0  0  0  0  0  0  0  0
  -22.5022   22.7190  -38.6603 C   0  0  0  0  0  0  0  0  0  0  0  0
  -21.6928   22.0066  -39.3944 O   0  0  0  0  0  0  0  0  0  0  0  0
  -21.7712   21.9410  -40.7006 C   0  0  0  0  0  0  0  0  0  0  0  0
  -20.8723   21.1623  -41.3872 C   0  0  0  0  0  0  0  0  0  0  0  0
  -20.9512   21.0886  -42.7802 C   0  0  0  0  0  0  0  0  0  0  0  0
  -20.0651   20.3147  -43.5215 O   0  0  0  0  0  0  0  0  0  0  0  0
  -21.9499   21.8174  -43.4125 C   0  0  0  0  0  0  0  0  0  0  0  0
  -22.8488   22.5995  -42.6913 C   0  0  0  0  0  0  0  0  0  0  0  0
  -22.7679   22.6699  -41.3161 C   0  0  0  0  0  0  0  0  0  0  0  0
  -23.6530   23.4429  -40.5757 C   0  0  0  0  0  0  0  0  0  0  0  0
  -24.5525   24.1011  -41.1262 O   0  0  0  0  0  0  0  0  0  0  0  0
  -24.0182   25.3369  -37.5841 C   0  0  0  0  0  0  0  0  0  0  0  0
  -24.9197   26.0524  -36.8066 C   0  0  0  0  0  0  0  0  0  0  0  0
  1  2  1  0
  2  3  1  0
  3  4  2  0
  4  5  1  0
  5  6  2  0
  6  7  1  0
  7  8  2  0
  8  9  1  0
  9 10  1  0
 10 11  2  0
 11 12  1  0
 12 13  1  0
 12 14  2  0
 14 15  1  0
 15 16  2  0
 16 17  1  0
 17 18  2  0
  6 19  1  0
 19 20  2  0
 20  3  1  0
 17  7  1  0
 16 10  1  0
M  END
$$$$
