
     RDKit          3D

 21 22  0  0  0  0  0  0  0  0999 V2000
  -19.6968    1.3528  -31.8808 C   0  0  0  0  0  0  0  0  0  0  0  0
  -18.4108    0.5689  -32.0341 C   0  0  0  0  0  0  0  0  0  0  0  0
  -17.3886    1.4849  -32.3891 O   0  0  0  0  0  0  0  0  0  0  0  0
  -16.0437    1.1803  -32.1999 C   0  0  0  0  0  0  0  0  0  0  0  0
  -15.2626    1.8409  -31.2750 C   0  0  0  0  0  0  0  0  0  0  0  0
  -13.9323    1.5054  -31.1229 C   0  0  0  0  0  0  0  0  0  0  0  0
  -13.3346    0.5083  -31.8795 C   0  0  0  0  0  0  0  0  0  0  0  0
  -11.9465    0.2290  -31.6604 N   0  0  0  0  0  0  0  0  0  0  0  0
  -10.9297    0.6131  -32.6037 C   0  0  0  0  0  0  0  0  0  0  0  0
  -11.3735    1.5261  -33.9060 S   0  0  0  0  0  0  0  0  0  0  0  0
   -9.5949    0.2159  -32.4033 N   0  0  0  0  0  0  0  0  0  0  0  0
   -8.5750    0.6415  -33.3089 C   0  0  0  0  0  0  0  0  0  0  0  0
   -7.2020    0.6652  -32.6853 C   0  0  0  0  0  0  0  0  0  0  0  0
   -6.2660   -0.3849  -33.1619 C   0  0  0  0  0  0  0  0  0  0  0  0
   -4.9767   -0.3810  -32.5400 N   0  0  0  0  0  0  0  0  0  0  0  0
   -4.0332    0.5749  -32.7111 C   0  0  0  0  0  0  0  0  0  0  0  0
   -2.9472    0.2396  -31.9734 C   0  0  0  0  0  0  0  0  0  0  0  0
   -3.2556   -0.9265  -31.3611 N   0  0  0  0  0  0  0  0  0  0  0  0
   -4.5091   -1.3117  -31.7099 C   0  0  0  0  0  0  0  0  0  0  0  0
  -14.1169   -0.1460  -32.7988 C   0  0  0  0  0  0  0  0  0  0  0  0
  -15.4691    0.1890  -32.9588 C   0  0  0  0  0  0  0  0  0  0  0  0
  1  2  1  0
  2  3  1  0
  3  4  1  0
  4  5  2  0
  5  6  1  0
  6  7  2  0
  7  8  1  0
  8  9  1  0
  9 10  2  0
  9 11  1  0
 11 12  1  0
 12 13  1  0
 13 14  1  0
 14 15  1  0
 15 16  1  0
 16 17  2  0
 17 18  1  0
 18 19  2  0
  7 20  1  0
 20 21  2  0
 21  4  1  0
 19 15  1  0
M  END
$$$$
