
     RDKit          3D

 19 20  0  0  0  0  0  0  0  0999 V2000
  -18.0349   40.2470  -24.1625 O   0  0  0  0  0  0  0  0  0  0  0  0
  -18.3171   40.4758  -22.9605 C   0  0  0  0  0  0  0  0  0  0  0  0
  -18.2848   39.3382  -22.0684 N   0  0  0  0  0  0  0  0  0  0  0  0
  -18.0334   38.0338  -22.6252 C   0  0  0  0  0  0  0  0  0  0  0  0
  -19.2844   37.2163  -22.6605 C   0  0  0  0  0  0  0  0  0  0  0  0
  -19.1700   35.8496  -23.2196 C   0  0  0  0  0  0  0  0  0  0  0  0
  -19.3882   34.7065  -22.3468 C   0  0  0  0  0  0  0  0  0  0  0  0
  -18.3176   33.8992  -21.9300 C   0  0  0  0  0  0  0  0  0  0  0  0
  -18.4865   32.8238  -21.1028 C   0  0  0  0  0  0  0  0  0  0  0  0
  -19.7254   32.4846  -20.6397 C   0  0  0  0  0  0  0  0  0  0  0  0
  -20.7993   33.2583  -21.0309 C   0  0  0  0  0  0  0  0  0  0  0  0
  -20.6390   34.3432  -21.8636 C   0  0  0  0  0  0  0  0  0  0  0  0
  -18.6506   41.7821  -22.4999 N   0  0  0  0  0  0  0  0  0  0  0  0
  -19.0886   42.8243  -23.4095 C   0  0  0  0  0  0  0  0  0  0  0  0
  -19.6923   43.9391  -22.6079 C   0  0  0  0  0  0  0  0  0  0  0  0
  -18.6865   44.9116  -22.0716 C   0  0  0  0  0  0  0  0  0  0  0  0
  -18.0467   45.5457  -23.3128 C   0  0  0  0  0  0  0  0  0  0  0  0
  -17.2481   44.4566  -23.9765 C   0  0  0  0  0  0  0  0  0  0  0  0
  -17.9973   43.2444  -24.3352 C   0  0  0  0  0  0  0  0  0  0  0  0
  1  2  2  0
  2  3  1  0
  3  4  1  0
  4  5  1  0
  5  6  1  0
  6  7  1  0
  7  8  2  0
  8  9  1  0
  9 10  2  0
 10 11  1  0
 11 12  2  0
  2 13  1  0
 13 14  1  0
 14 15  1  0
 15 16  1  0
 16 17  1  0
 17 18  1  0
 18 19  1  0
 12  7  1  0
 19 14  1  0
M  END
$$$$
