
     RDKit          3D

 51 53  0  0  0  0  0  0  0  0999 V2000
  -21.5971   21.3251  -43.7428 C   0  0  0  0  0  0  0  0  0  0  0  0
  -20.1753   20.8183  -44.0387 C   0  0  0  0  0  0  0  0  0  0  0  0
  -19.1973   21.6421  -43.2645 C   0  0  1  0  0  0  0  0  0  0  0  0
  -19.7817   22.4743  -42.3270 O   0  0  0  0  0  0  0  0  0  0  0  0
  -20.2063   22.5471  -41.0844 C   0  0  0  0  0  0  0  0  0  0  0  0
  -20.4411   23.7441  -40.6707 O   0  0  0  0  0  0  0  0  0  0  0  0
  -20.4652   21.5124  -40.0712 C   0  0  2  0  0  0  0  0  0  0  0  0
  -21.7227   20.8165  -40.4689 C   0  0  0  0  0  0  0  0  0  0  0  0
  -20.6931   22.0121  -38.6377 C   0  0  1  0  0  0  0  0  0  0  0  0
  -22.0334   22.1789  -38.4687 O   0  0  0  0  0  0  0  0  0  0  0  0
  -22.5220   22.9909  -37.5156 C   0  0  1  0  0  0  0  0  0  0  0  0
  -23.3577   24.0506  -38.2528 C   0  0  0  0  0  0  0  0  0  0  0  0
  -24.5803   24.4299  -37.4963 C   0  0  1  0  0  0  0  0  0  0  0  0
  -25.0996   25.7287  -38.0796 C   0  0  0  0  0  0  0  0  0  0  0  0
  -25.5655   23.4808  -37.4974 O   0  0  0  0  0  0  0  0  0  0  0  0
  -26.1257   23.1790  -36.2839 C   0  0  0  0  0  0  0  0  0  0  0  0
  -24.1527   24.6270  -36.0397 C   0  0  1  0  0  0  0  0  0  0  0  0
  -25.2323   25.0897  -35.3205 O   0  0  0  0  0  0  0  0  0  0  0  0
  -23.7149   23.2371  -35.5687 C   0  0  2  0  0  0  0  0  0  0  0  0
  -22.5493   23.4288  -34.6482 C   0  0  0  0  0  0  0  0  0  0  0  0
  -23.4418   22.3938  -36.6354 O   0  0  0  0  0  0  0  0  0  0  0  0
  -20.3762   20.7751  -37.7553 C   0  0  2  0  0  0  0  0  0  0  0  0
  -20.9814   21.0378  -36.4153 C   0  0  0  0  0  0  0  0  0  0  0  0
  -18.9419   20.3666  -37.7547 C   0  0  1  0  0  0  0  0  0  0  0  0
  -18.4746   20.5802  -36.4295 O   0  0  0  0  0  0  0  0  0  0  0  0
  -18.9719   19.7137  -35.5053 C   0  0  2  0  0  0  0  0  0  0  0  0
  -19.9851   20.2526  -34.7149 O   0  0  0  0  0  0  0  0  0  0  0  0
  -19.6017   21.2355  -33.8499 C   0  0  2  0  0  0  0  0  0  0  0  0
  -19.5409   22.6186  -34.4689 C   0  0  0  0  0  0  0  0  0  0  0  0
  -18.3012   20.9559  -33.1283 C   0  0  0  0  0  0  0  0  0  0  0  0
  -18.1695   19.4264  -33.1524 C   0  0  2  0  0  0  0  0  0  0  0  0
  -17.0832   18.9936  -32.3222 N   0  0  0  0  0  0  0  0  0  0  0  0
  -17.4177   18.9281  -30.9299 C   0  0  0  0  0  0  0  0  0  0  0  0
  -16.7114   17.6312  -32.7315 C   0  0  0  0  0  0  0  0  0  0  0  0
  -17.9372   19.0809  -34.6148 C   0  0  1  0  0  0  0  0  0  0  0  0
  -17.9636   17.6908  -34.7125 O   0  0  0  0  0  0  0  0  0  0  0  0
  -18.6281   18.9687  -38.1015 C   0  0  2  0  0  0  0  0  0  0  0  0
  -19.7556   18.2059  -38.8173 C   0  0  0  0  0  0  0  0  0  0  0  0
  -18.6397   18.2310  -36.8674 O   0  0  0  0  0  0  0  0  0  0  0  0
  -17.3568   18.5790  -38.7288 C   0  0  0  0  0  0  0  0  0  0  0  0
  -16.7813   19.3933  -39.8385 C   0  0  1  0  0  0  0  0  0  0  0  0
  -15.3219   19.7116  -39.4632 C   0  0  0  0  0  0  0  0  0  0  0  0
  -16.8590   18.7924  -41.1972 C   0  0  0  0  0  0  0  0  0  0  0  0
  -17.5294   17.7290  -41.1512 O   0  0  0  0  0  0  0  0  0  0  0  0
  -16.3284   19.1995  -42.4646 C   0  0  2  0  0  0  0  0  0  0  0  0
  -14.7975   19.4075  -42.4567 C   0  0  0  0  0  0  0  0  0  0  0  0
  -16.9951   20.2304  -43.3431 C   0  0  1  0  0  0  0  0  0  0  0  0
  -17.5010   19.7284  -44.5382 O   0  0  0  0  0  0  0  0  0  0  0  0
  -18.0736   20.9447  -42.6210 C   0  0  1  0  0  0  0  0  0  0  0  0
  -17.3805   22.0214  -41.8874 C   0  0  0  0  0  0  0  0  0  0  0  0
  -18.6628   19.8780  -42.0379 O   0  0  0  0  0  0  0  0  0  0  0  0
  1  2  1  0
  3  2  1  1
  3  4  1  0
  4  5  1  0
  5  6  2  0
  5  7  1  0
  7  8  1  6
  7  9  1  0
  9 10  1  6
 11 10  1  6
 11 12  1  0
 12 13  1  0
 13 14  1  6
 13 15  1  0
 15 16  1  0
 13 17  1  0
 17 18  1  1
 17 19  1  0
 19 20  1  1
 19 21  1  0
  9 22  1  0
 22 23  1  1
 22 24  1  0
 24 25  1  1
 26 25  1  1
 26 27  1  0
 27 28  1  0
 28 29  1  6
 28 30  1  0
 30 31  1  0
 31 32  1  1
 32 33  1  0
 32 34  1  0
 31 35  1  0
 35 36  1  1
 24 37  1  0
 37 38  1  6
 37 39  1  0
 37 40  1  0
 40 41  1  0
 41 42  1  1
 41 43  1  0
 43 44  2  0
 43 45  1  0
 45 46  1  1
 45 47  1  0
 47 48  1  6
 47 49  1  0
 49 50  1  1
 49 51  1  0
 49  3  1  0
 21 11  1  0
 35 26  1  0
M  END
$$$$
