
     RDKit          3D

 10 10  0  0  0  0  0  0  0  0999 V2000
  -16.4302   13.4650  -30.4927 N   0  0  0  0  0  0  0  0  0  0  0  0
  -16.9175   14.8364  -30.5380 C   0  0  0  0  0  0  0  0  0  0  0  0
  -15.8089   15.6942  -31.1604 C   0  0  0  0  0  0  0  0  0  0  0  0
  -16.2408   17.1150  -31.1097 C   0  0  0  0  0  0  0  0  0  0  0  0
  -17.5451   17.4506  -31.4361 C   0  0  0  0  0  0  0  0  0  0  0  0
  -18.0067   18.7443  -31.4091 C   0  0  0  0  0  0  0  0  0  0  0  0
  -17.1780   19.7825  -31.0501 C   0  0  0  0  0  0  0  0  0  0  0  0
  -17.6375   21.1109  -31.0183 O   0  0  0  0  0  0  0  0  0  0  0  0
  -15.8764   19.4662  -30.7222 C   0  0  0  0  0  0  0  0  0  0  0  0
  -15.4121   18.1567  -30.7502 C   0  0  0  0  0  0  0  0  0  0  0  0
  1  2  1  0
  2  3  1  0
  3  4  1  0
  4  5  2  0
  5  6  1  0
  6  7  2  0
  7  8  1  0
  7  9  1  0
  9 10  2  0
 10  4  1  0
M  END
$$$$
