
     RDKit          3D

 20 22  0  0  0  0  0  0  0  0999 V2000
  -24.4288   21.0602  -37.5696 C   0  0  0  0  0  0  0  0  0  0  0  0
  -23.8738   22.2847  -38.1766 C   0  0  0  0  0  0  0  0  0  0  0  0
  -24.2524   23.5086  -37.6711 C   0  0  0  0  0  0  0  0  0  0  0  0
  -25.1424   23.5402  -36.6127 C   0  0  0  0  0  0  0  0  0  0  0  0
  -25.4908   24.7784  -36.1456 C   0  0  0  0  0  0  0  0  0  0  0  0
  -24.9863   25.8969  -36.6967 N   0  0  0  0  0  0  0  0  0  0  0  0
  -24.1080   25.8520  -37.7418 C   0  0  0  0  0  0  0  0  0  0  0  0
  -23.7177   24.6433  -38.2572 C   0  0  0  0  0  0  0  0  0  0  0  0
  -22.8319   24.5502  -39.3160 C   0  0  0  0  0  0  0  0  0  0  0  0
  -22.2481   25.7335  -39.9473 C   0  0  0  0  0  0  0  0  0  0  0  0
  -22.4523   23.3001  -39.8245 C   0  0  0  0  0  0  0  0  0  0  0  0
  -22.9948   22.1765  -39.2286 C   0  0  0  0  0  0  0  0  0  0  0  0
  -22.5027   21.1051  -39.8647 N   0  0  0  0  0  0  0  0  0  0  0  0
  -21.6608   21.4859  -40.8523 C   0  0  0  0  0  0  0  0  0  0  0  0
  -20.9227   20.7743  -41.7676 C   0  0  0  0  0  0  0  0  0  0  0  0
  -20.1432   21.4381  -42.6696 C   0  0  0  0  0  0  0  0  0  0  0  0
  -20.0994   22.8152  -42.6594 C   0  0  0  0  0  0  0  0  0  0  0  0
  -20.8342   23.5487  -41.7471 C   0  0  0  0  0  0  0  0  0  0  0  0
  -21.6171   22.8772  -40.8410 C   0  0  0  0  0  0  0  0  0  0  0  0
  -22.3833   22.9353  -39.8634 Cl  0  0  0  0  0  0  0  0  0  0  0  0
  1  2  1  0
  2  3  2  0
  3  4  1  0
  4  5  2  0
  5  6  1  0
  6  7  2  0
  7  8  1  0
  8  9  2  0
  9 10  1  0
  9 11  1  0
 11 12  2  0
 12 13  1  0
 13 14  1  0
 14 15  2  0
 15 16  1  0
 16 17  2  0
 17 18  1  0
 18 19  2  0
 12  2  1  0
 19 14  1  0
  8  3  1  0
 19 11  1  0
M  END
$$$$
