
     RDKit          3D

 16 15  0  0  0  0  0  0  0  0999 V2000
  -17.6284   14.9533  -32.5257 Cl  0  0  0  0  0  0  0  0  0  0  0  0
  -20.3404   14.2658  -33.6176 N   0  0  0  0  0  0  0  0  0  0  0  0
  -20.0979   14.3778  -32.3982 C   0  0  0  0  0  0  0  0  0  0  0  0
  -20.9090   13.6391  -31.4396 N   0  0  0  0  0  0  0  0  0  0  0  0
  -19.0053   15.1646  -31.9244 N   0  0  0  0  0  0  0  0  0  0  0  0
  -18.0638   15.7484  -32.7919 C   0  0  0  0  0  0  0  0  0  0  0  0
  -18.1146   15.6171  -34.0519 O   0  0  0  0  0  0  0  0  0  0  0  0
  -16.8973   16.5829  -32.3282 C   0  0  0  0  0  0  0  0  0  0  0  0
  -15.6429   15.8129  -32.4481 C   0  0  0  0  0  0  0  0  0  0  0  0
  -15.2646   14.9962  -31.4053 C   0  0  0  0  0  0  0  0  0  0  0  0
  -16.1725   14.9543  -29.8774 Cl  0  0  0  0  0  0  0  0  0  0  0  0
  -14.1110   14.2084  -31.5402 C   0  0  0  0  0  0  0  0  0  0  0  0
  -13.3790   14.2614  -32.7027 C   0  0  0  0  0  0  0  0  0  0  0  0
  -13.7697   15.0907  -33.7503 C   0  0  0  0  0  0  0  0  0  0  0  0
  -14.9144   15.8569  -33.5904 C   0  0  0  0  0  0  0  0  0  0  0  0
  -15.3617   16.8696  -34.9634 Cl  0  0  0  0  0  0  0  0  0  0  0  0
  2  3  2  0
  3  4  1  0
  3  5  1  0
  5  6  1  0
  6  7  2  0
  6  8  1  0
  8  9  1  0
  9 10  2  0
 10 11  1  0
 10 12  1  0
 12 13  2  0
 13 14  1  0
 14 15  2  0
 15 16  1  0
 15  9  1  0
M  END
$$$$
