
     RDKit          3D

 20 21  0  0  0  0  0  0  0  0999 V2000
  -29.7148   22.0024  -25.4196 C   0  0  0  0  0  0  0  0  0  0  0  0
  -29.6556   21.2409  -26.6165 O   0  0  0  0  0  0  0  0  0  0  0  0
  -28.7510   20.1909  -26.6809 C   0  0  0  0  0  0  0  0  0  0  0  0
  -29.2502   18.9478  -26.9800 C   0  0  0  0  0  0  0  0  0  0  0  0
  -28.4170   17.8428  -27.0647 C   0  0  0  0  0  0  0  0  0  0  0  0
  -27.0568   17.9604  -26.8500 C   0  0  0  0  0  0  0  0  0  0  0  0
  -26.2140   16.7726  -26.9485 C   0  0  0  0  0  0  0  0  0  0  0  0
  -25.5150   16.7310  -28.0202 O   0  0  0  0  0  0  0  0  0  0  0  0
  -26.1075   15.7089  -26.0022 C   0  0  0  0  0  0  0  0  0  0  0  0
  -27.1521   15.1226  -25.6201 O   0  0  0  0  0  0  0  0  0  0  0  0
  -24.8537   15.2481  -25.4397 C   0  0  0  0  0  0  0  0  0  0  0  0
  -24.2421   16.0017  -24.4426 C   0  0  0  0  0  0  0  0  0  0  0  0
  -23.0594   15.6204  -23.8725 C   0  0  0  0  0  0  0  0  0  0  0  0
  -22.4030   14.4704  -24.2490 C   0  0  0  0  0  0  0  0  0  0  0  0
  -21.1995   14.1093  -23.6489 O   0  0  0  0  0  0  0  0  0  0  0  0
  -20.3185   15.1286  -23.2155 C   0  0  0  0  0  0  0  0  0  0  0  0
  -22.9734   13.6960  -25.2317 C   0  0  0  0  0  0  0  0  0  0  0  0
  -24.1883   14.1044  -25.8050 C   0  0  0  0  0  0  0  0  0  0  0  0
  -26.5691   19.2009  -26.5530 C   0  0  0  0  0  0  0  0  0  0  0  0
  -27.4225   20.3078  -26.4709 C   0  0  0  0  0  0  0  0  0  0  0  0
  1  2  1  0
  2  3  1  0
  3  4  2  0
  4  5  1  0
  5  6  2  0
  6  7  1  0
  7  8  2  0
  7  9  1  0
  9 10  2  0
  9 11  1  0
 11 12  2  0
 12 13  1  0
 13 14  2  0
 14 15  1  0
 15 16  1  0
 14 17  1  0
 17 18  2  0
  6 19  1  0
 19 20  2  0
 20  3  1  0
 18 11  1  0
M  END
$$$$
