
     RDKit          3D

 25 27  0  0  0  0  0  0  0  0999 V2000
  -20.1760   39.4330  -24.8602 O   0  0  0  0  0  0  0  0  0  0  0  0
  -20.3084   38.2161  -25.0140 C   0  0  0  0  0  0  0  0  0  0  0  0
  -20.9647   37.8092  -26.2232 N   0  0  0  0  0  0  0  0  0  0  0  0
  -21.4970   38.6913  -27.2010 C   0  0  0  0  0  0  0  0  0  0  0  0
  -22.8476   39.2601  -26.8772 C   0  0  0  0  0  0  0  0  0  0  0  0
  -23.1930   40.2786  -27.9439 C   0  0  0  0  0  0  0  0  0  0  0  0
  -22.3642   40.1946  -29.1028 N   0  0  0  0  0  0  0  0  0  0  0  0
  -20.9713   40.4232  -28.8431 C   0  0  0  0  0  0  0  0  0  0  0  0
  -20.5252   39.8257  -27.5487 C   0  0  0  0  0  0  0  0  0  0  0  0
  -19.8270   37.2775  -24.0289 C   0  0  0  0  0  0  0  0  0  0  0  0
  -20.2555   35.9736  -23.9933 N   0  0  0  0  0  0  0  0  0  0  0  0
  -19.6563   35.3563  -23.0011 N   0  0  0  0  0  0  0  0  0  0  0  0
  -18.8287   36.2308  -22.3680 C   0  0  0  0  0  0  0  0  0  0  0  0
  -18.9249   37.4461  -23.0039 C   0  0  0  0  0  0  0  0  0  0  0  0
  -18.2749   38.6998  -22.7482 N   0  0  0  0  0  0  0  0  0  0  0  0
  -17.5517   38.9621  -21.5651 C   0  0  0  0  0  0  0  0  0  0  0  0
  -17.3487   37.9109  -20.8457 O   0  0  0  0  0  0  0  0  0  0  0  0
  -17.0352   40.2339  -21.1005 C   0  0  0  0  0  0  0  0  0  0  0  0
  -15.7672   40.5969  -21.5836 C   0  0  0  0  0  0  0  0  0  0  0  0
  -14.9054   39.5558  -22.7098 Cl  0  0  0  0  0  0  0  0  0  0  0  0
  -15.1289   41.7561  -21.2239 C   0  0  0  0  0  0  0  0  0  0  0  0
  -15.7543   42.6146  -20.3451 C   0  0  0  0  0  0  0  0  0  0  0  0
  -17.0072   42.2969  -19.8418 C   0  0  0  0  0  0  0  0  0  0  0  0
  -17.6242   41.1053  -20.2326 C   0  0  0  0  0  0  0  0  0  0  0  0
  -19.1822   40.7736  -19.5152 Cl  0  0  0  0  0  0  0  0  0  0  0  0
  1  2  2  0
  2  3  1  0
  3  4  1  0
  4  5  1  0
  5  6  1  0
  6  7  1  0
  7  8  1  0
  8  9  1  0
  2 10  1  0
 10 11  2  0
 11 12  1  0
 12 13  1  0
 13 14  2  0
 14 15  1  0
 15 16  1  0
 16 17  2  0
 16 18  1  0
 18 19  2  0
 19 20  1  0
 19 21  1  0
 21 22  2  0
 22 23  1  0
 23 24  2  0
 24 25  1  0
  9  4  1  0
 14 10  1  0
 24 18  1  0
M  END
$$$$
