
     RDKit          3D

 21 23  0  0  0  0  0  0  0  0999 V2000
  -23.7419   14.8011  -25.4131 C   0  0  0  0  0  0  0  0  0  0  0  0
  -24.9923   14.5136  -26.0014 O   0  0  0  0  0  0  0  0  0  0  0  0
  -25.8609   15.5272  -26.3971 C   0  0  0  0  0  0  0  0  0  0  0  0
  -26.0633   16.6151  -25.5930 C   0  0  0  0  0  0  0  0  0  0  0  0
  -26.9152   17.6366  -25.9523 C   0  0  0  0  0  0  0  0  0  0  0  0
  -27.6006   17.6170  -27.1269 C   0  0  0  0  0  0  0  0  0  0  0  0
  -28.5084   18.6739  -27.5429 C   0  0  0  0  0  0  0  0  0  0  0  0
  -28.9343   19.5978  -26.6246 C   0  0  0  0  0  0  0  0  0  0  0  0
  -29.8107   20.6058  -27.0582 C   0  0  0  0  0  0  0  0  0  0  0  0
  -30.2314   21.4778  -26.2568 O   0  0  0  0  0  0  0  0  0  0  0  0
  -30.2106   20.6357  -28.3748 C   0  0  0  0  0  0  0  0  0  0  0  0
  -31.0787   21.6145  -28.8554 C   0  0  0  0  0  0  0  0  0  0  0  0
  -31.5168   22.5533  -27.9408 O   0  0  0  0  0  0  0  0  0  0  0  0
  -31.4760   21.6393  -30.1761 C   0  0  0  0  0  0  0  0  0  0  0  0
  -31.0149   20.6833  -31.0552 C   0  0  0  0  0  0  0  0  0  0  0  0
  -31.4087   20.6918  -32.4062 O   0  0  0  0  0  0  0  0  0  0  0  0
  -30.1573   19.7203  -30.5702 C   0  0  0  0  0  0  0  0  0  0  0  0
  -29.7423   19.6738  -29.2442 C   0  0  0  0  0  0  0  0  0  0  0  0
  -28.9279   18.7509  -28.8052 O   0  0  0  0  0  0  0  0  0  0  0  0
  -27.3883   16.4985  -27.9464 C   0  0  0  0  0  0  0  0  0  0  0  0
  -26.5390   15.4780  -27.5906 C   0  0  0  0  0  0  0  0  0  0  0  0
  1  2  1  0
  2  3  1  0
  3  4  2  0
  4  5  1  0
  5  6  2  0
  6  7  1  0
  7  8  2  0
  8  9  1  0
  9 10  2  0
  9 11  1  0
 11 12  2  0
 12 13  1  0
 12 14  1  0
 14 15  2  0
 15 16  1  0
 15 17  1  0
 17 18  2  0
 18 19  1  0
  6 20  1  0
 20 21  2  0
 21  3  1  0
 19  7  1  0
 18 11  1  0
M  END
$$$$
