
     RDKit          3D

 22 23  0  0  0  0  0  0  0  0999 V2000
  -21.0483   37.6885  -26.2929 C   0  0  0  0  0  0  0  0  0  0  0  0
  -20.6975   36.7099  -25.2903 N   0  0  0  0  0  0  0  0  0  0  0  0
  -19.2781   36.5443  -25.2294 C   0  0  0  0  0  0  0  0  0  0  0  0
  -18.5683   37.7489  -24.7047 C   0  0  0  0  0  0  0  0  0  0  0  0
  -19.0315   38.0746  -23.2935 C   0  0  2  0  0  0  0  0  0  0  0  0
  -18.3188   39.2030  -22.8854 O   0  0  0  0  0  0  0  0  0  0  0  0
  -18.8661   40.3707  -22.3866 C   0  0  0  0  0  0  0  0  0  0  0  0
  -20.2162   40.5788  -22.2249 C   0  0  0  0  0  0  0  0  0  0  0  0
  -20.6285   41.8024  -21.7112 C   0  0  0  0  0  0  0  0  0  0  0  0
  -19.7200   42.7712  -21.3765 C   0  0  0  0  0  0  0  0  0  0  0  0
  -18.3785   42.5398  -21.5469 C   0  0  0  0  0  0  0  0  0  0  0  0
  -17.4253   43.5054  -21.2174 C   0  0  0  0  0  0  0  0  0  0  0  0
  -16.0796   43.2755  -21.3888 C   0  0  0  0  0  0  0  0  0  0  0  0
  -15.6339   42.0765  -21.8946 C   0  0  0  0  0  0  0  0  0  0  0  0
  -16.5797   41.1272  -22.2182 C   0  0  0  0  0  0  0  0  0  0  0  0
  -17.9246   41.3559  -22.0471 C   0  0  0  0  0  0  0  0  0  0  0  0
  -18.5542   36.9466  -22.4255 C   0  0  0  0  0  0  0  0  0  0  0  0
  -17.2857   36.5787  -22.0634 C   0  0  0  0  0  0  0  0  0  0  0  0
  -17.1015   35.5337  -21.2753 C   0  0  0  0  0  0  0  0  0  0  0  0
  -18.2461   34.8657  -20.8602 C   0  0  0  0  0  0  0  0  0  0  0  0
  -19.5427   35.7443  -21.6029 S   0  0  0  0  0  0  0  0  0  0  0  0
  -18.6206   38.4492  -23.1813 Cl  0  0  0  0  0  0  0  0  0  0  0  0
  1  2  1  0
  2  3  1  0
  3  4  1  0
  5  4  1  6
  5  6  1  0
  6  7  1  0
  7  8  2  0
  8  9  1  0
  9 10  2  0
 10 11  1  0
 11 12  2  0
 12 13  1  0
 13 14  2  0
 14 15  1  0
 15 16  2  0
  5 17  1  0
 17 18  2  0
 18 19  1  0
 19 20  2  0
 20 21  1  0
 16  7  1  0
 21 17  1  0
 16 11  1  0
M  END
$$$$
