
     RDKit          3D

 30 35  0  0  0  0  0  0  0  0999 V2000
  -12.6376    3.9950  -43.0204 O   0  0  0  0  0  0  0  0  0  0  0  0
  -12.4002    4.2570  -41.8113 C   0  0  0  0  0  0  0  0  0  0  0  0
  -11.4724    5.2302  -41.5453 O   0  0  0  0  0  0  0  0  0  0  0  0
  -13.1079    3.5294  -40.7591 C   0  0  0  0  0  0  0  0  0  0  0  0
  -12.9409    3.8227  -39.4382 C   0  0  0  0  0  0  0  0  0  0  0  0
  -13.5930    3.1550  -38.4344 C   0  0  0  0  0  0  0  0  0  0  0  0
  -14.4628    2.1317  -38.8045 C   0  0  0  0  0  0  0  0  0  0  0  0
  -15.1565    1.4145  -37.8348 C   0  0  0  0  0  0  0  0  0  0  0  0
  -16.0162    0.4049  -38.1852 C   0  0  0  0  0  0  0  0  0  0  0  0
  -16.7497   -0.3555  -37.1755 C   0  0  0  0  0  0  0  0  0  0  0  0
  -17.0104   -1.7045  -37.3226 C   0  0  0  0  0  0  0  0  0  0  0  0
  -17.7010   -2.4324  -36.3763 C   0  0  0  0  0  0  0  0  0  0  0  0
  -18.1651   -1.8068  -35.2170 C   0  0  0  0  0  0  0  0  0  0  0  0
  -18.8598   -2.5277  -34.2587 O   0  0  0  0  0  0  0  0  0  0  0  0
  -17.9163   -0.4640  -35.0514 C   0  0  0  0  0  0  0  0  0  0  0  0
  -18.3900    0.2376  -33.8448 C   0  0  0  0  0  0  0  0  0  0  0  0
  -17.5123   -0.1524  -32.6446 C   0  0  0  0  0  0  0  0  0  0  0  0
  -17.9650    0.5730  -31.4115 C   0  0  0  0  0  0  0  0  0  0  0  0
  -19.4198    0.3003  -31.0983 C   0  0  0  0  0  0  0  0  0  0  0  0
  -20.2225    0.7327  -32.2972 C   0  0  0  0  0  0  0  0  0  0  0  0
  -20.0145    2.2063  -32.5301 C   0  0  0  0  0  0  0  0  0  0  0  0
  -18.5404    2.4986  -32.7853 C   0  0  0  0  0  0  0  0  0  0  0  0
  -17.7402    2.0544  -31.6101 C   0  0  0  0  0  0  0  0  0  0  0  0
  -18.1755    1.7233  -34.0439 C   0  0  0  0  0  0  0  0  0  0  0  0
  -19.7977   -0.1106  -33.4719 C   0  0  0  0  0  0  0  0  0  0  0  0
  -17.2155    0.2505  -36.0229 C   0  0  0  0  0  0  0  0  0  0  0  0
  -16.1740    0.1201  -39.5279 C   0  0  0  0  0  0  0  0  0  0  0  0
  -15.5075    0.8054  -40.5096 C   0  0  0  0  0  0  0  0  0  0  0  0
  -14.6501    1.8159  -40.1136 C   0  0  0  0  0  0  0  0  0  0  0  0
  -13.9754    2.5113  -41.0931 C   0  0  0  0  0  0  0  0  0  0  0  0
  1  2  2  0
  2  3  1  0
  2  4  1  0
  4  5  2  0
  5  6  1  0
  6  7  2  0
  7  8  1  0
  8  9  2  0
  9 10  1  0
 10 11  2  0
 11 12  1  0
 12 13  2  0
 13 14  1  0
 13 15  1  0
 15 16  1  0
 16 17  1  0
 17 18  1  0
 18 19  1  0
 19 20  1  0
 20 21  1  0
 21 22  1  0
 22 23  1  0
 22 24  1  0
 20 25  1  0
 15 26  2  0
  9 27  1  0
 27 28  2  0
 28 29  1  0
 29 30  2  0
 30  4  1  0
 29  7  1  0
 26 10  1  0
 24 16  1  0
 25 16  1  0
 23 18  1  0
M  END
$$$$
