
     RDKit          3D

 15 16  0  0  0  0  0  0  0  0999 V2000
  -17.4696   42.7179  -23.1065 C   0  0  0  0  0  0  0  0  0  0  0  0
  -17.8983   41.5545  -22.3467 N   0  0  0  0  0  0  0  0  0  0  0  0
  -17.3963   41.1682  -20.6869 S   0  0  0  0  0  0  0  0  0  0  0  0
  -18.3983   39.6356  -20.6414 C   0  0  0  0  0  0  0  0  0  0  0  0
  -18.4609   38.8537  -19.6381 O   0  0  0  0  0  0  0  0  0  0  0  0
  -18.9688   39.6089  -21.8487 N   0  0  0  0  0  0  0  0  0  0  0  0
  -19.8760   38.4576  -22.1563 C   0  0  0  0  0  0  0  0  0  0  0  0
  -19.1068   37.3098  -22.6865 C   0  0  0  0  0  0  0  0  0  0  0  0
  -18.5928   36.3640  -21.8287 C   0  0  0  0  0  0  0  0  0  0  0  0
  -17.8641   35.2694  -22.2811 C   0  0  0  0  0  0  0  0  0  0  0  0
  -17.6451   35.1228  -23.6541 C   0  0  0  0  0  0  0  0  0  0  0  0
  -18.1626   36.0735  -24.5075 C   0  0  0  0  0  0  0  0  0  0  0  0
  -18.8825   37.1511  -24.0343 C   0  0  0  0  0  0  0  0  0  0  0  0
  -18.7159   40.5619  -22.6856 C   0  0  0  0  0  0  0  0  0  0  0  0
  -19.2394   40.5909  -23.8714 O   0  0  0  0  0  0  0  0  0  0  0  0
  1  2  1  0
  2  3  1  0
  3  4  1  0
  4  5  2  0
  4  6  1  0
  6  7  1  0
  7  8  1  0
  8  9  2  0
  9 10  1  0
 10 11  2  0
 11 12  1  0
 12 13  2  0
  6 14  1  0
 14 15  2  0
 14  2  1  0
 13  8  1  0
M  END
$$$$
