
     RDKit          3D

 24 27  0  0  0  0  0  0  0  0999 V2000
  -18.4643   24.2523  -41.7890 N   0  0  0  0  0  0  0  0  0  0  0  0
  -19.8114   23.8454  -41.7726 C   0  0  0  0  0  0  0  0  0  0  0  0
  -20.6899   24.6989  -41.5024 O   0  0  0  0  0  0  0  0  0  0  0  0
  -20.1423   22.4555  -42.0677 C   0  0  0  0  0  0  0  0  0  0  0  0
  -21.4514   22.0625  -42.2243 C   0  0  0  0  0  0  0  0  0  0  0  0
  -21.7615   20.7390  -42.5050 C   0  0  0  0  0  0  0  0  0  0  0  0
  -20.7801   19.7858  -42.6347 C   0  0  0  0  0  0  0  0  0  0  0  0
  -19.4599   20.1747  -42.4783 C   0  0  0  0  0  0  0  0  0  0  0  0
  -18.3040   19.5010  -42.5422 N   0  0  0  0  0  0  0  0  0  0  0  0
  -17.2863   20.3501  -42.3129 C   0  0  0  0  0  0  0  0  0  0  0  0
  -15.8728   19.9516  -42.3067 C   0  0  0  0  0  0  0  0  0  0  0  0
  -14.9020   20.7444  -42.8784 C   0  0  0  0  0  0  0  0  0  0  0  0
  -13.5635   20.3781  -42.8786 C   0  0  0  0  0  0  0  0  0  0  0  0
  -13.1539   19.1962  -42.3011 C   0  0  0  0  0  0  0  0  0  0  0  0
  -11.7300   18.7696  -42.2813 C   0  0  2  0  0  0  0  0  0  0  0  0
  -11.0965   18.9539  -40.9197 C   0  0  0  0  0  0  0  0  0  0  0  0
   -9.6160   18.7767  -41.2831 C   0  0  0  0  0  0  0  0  0  0  0  0
   -9.5583   19.1171  -42.7601 C   0  0  0  0  0  0  0  0  0  0  0  0
  -10.8900   19.5947  -43.1155 N   0  0  0  0  0  0  0  0  0  0  0  0
  -14.1237   18.4015  -41.7285 C   0  0  0  0  0  0  0  0  0  0  0  0
  -15.4570   18.7708  -41.7307 C   0  0  0  0  0  0  0  0  0  0  0  0
  -16.4235   17.9963  -41.1696 F   0  0  0  0  0  0  0  0  0  0  0  0
  -17.8159   21.5551  -42.1061 N   0  0  0  0  0  0  0  0  0  0  0  0
  -19.1642   21.4912  -42.1999 C   0  0  0  0  0  0  0  0  0  0  0  0
  1  2  1  0
  2  3  2  0
  2  4  1  0
  4  5  2  0
  5  6  1  0
  6  7  2  0
  7  8  1  0
  8  9  1  0
  9 10  1  0
 10 11  1  0
 11 12  2  0
 12 13  1  0
 13 14  2  0
 15 14  1  1
 15 16  1  0
 16 17  1  0
 17 18  1  0
 18 19  1  0
 14 20  1  0
 20 21  2  0
 21 22  1  0
 10 23  2  0
 23 24  1  0
 24  4  1  0
 24  8  2  0
 21 11  1  0
 19 15  1  0
M  END
$$$$
