
     RDKit          3D

 18 20  0  0  0  0  0  0  0  0999 V2000
  -29.2839   21.3699  -30.4328 C   0  0  0  0  0  0  0  0  0  0  0  0
  -28.5089   20.6134  -29.4459 N   0  0  0  0  0  0  0  0  0  0  0  0
  -28.3590   21.3564  -28.2384 C   0  0  0  0  0  0  0  0  0  0  0  0
  -28.3509   20.5689  -27.0048 C   0  0  0  0  0  0  0  0  0  0  0  0
  -27.5118   20.8942  -25.9626 C   0  0  0  0  0  0  0  0  0  0  0  0
  -26.6282   22.0080  -26.0613 N   0  0  0  0  0  0  0  0  0  0  0  0
  -27.5689   20.1006  -24.8369 C   0  0  0  0  0  0  0  0  0  0  0  0
  -28.4308   19.0175  -24.7456 C   0  0  0  0  0  0  0  0  0  0  0  0
  -29.2566   18.7131  -25.7958 C   0  0  0  0  0  0  0  0  0  0  0  0
  -29.2237   19.4771  -26.9203 C   0  0  0  0  0  0  0  0  0  0  0  0
  -30.0584   19.2623  -28.1287 C   0  0  0  0  0  0  0  0  0  0  0  0
  -30.8160   17.9972  -28.1038 C   0  0  0  0  0  0  0  0  0  0  0  0
  -30.8186   17.0861  -29.1279 C   0  0  0  0  0  0  0  0  0  0  0  0
  -31.5592   15.9318  -29.0106 C   0  0  0  0  0  0  0  0  0  0  0  0
  -32.3063   15.6680  -27.8751 C   0  0  0  0  0  0  0  0  0  0  0  0
  -32.3218   16.5685  -26.8283 C   0  0  0  0  0  0  0  0  0  0  0  0
  -31.5680   17.7085  -26.9870 C   0  0  0  0  0  0  0  0  0  0  0  0
  -29.0863   19.3094  -29.3068 C   0  0  0  0  0  0  0  0  0  0  0  0
  1  2  1  0
  2  3  1  0
  3  4  1  0
  4  5  2  0
  5  6  1  0
  5  7  1  0
  7  8  2  0
  8  9  1  0
  9 10  2  0
 10 11  1  0
 11 12  1  0
 12 13  2  0
 13 14  1  0
 14 15  2  0
 15 16  1  0
 16 17  2  0
 11 18  1  0
 18  2  1  0
 10  4  1  0
 17 12  1  0
M  END
$$$$
