
     RDKit          3D

 18 19  0  0  0  0  0  0  0  0999 V2000
    2.2681   24.2589  -20.1212 C   0  0  0  0  0  0  0  0  0  0  0  0
    3.3298   23.6935  -19.1661 C   0  0  0  0  0  0  0  0  0  0  0  0
    4.6679   23.8624  -19.8420 C   0  0  0  0  0  0  0  0  0  0  0  0
    3.2871   24.5187  -17.9311 C   0  0  0  0  0  0  0  0  0  0  0  0
    3.0443   22.2747  -19.0047 C   0  0  0  0  0  0  0  0  0  0  0  0
    2.5326   21.5937  -20.1007 C   0  0  0  0  0  0  0  0  0  0  0  0
    2.2310   20.2574  -20.0513 C   0  0  0  0  0  0  0  0  0  0  0  0
    2.4433   19.5471  -18.8575 C   0  0  0  0  0  0  0  0  0  0  0  0
    2.1239   18.2056  -18.8598 O   0  0  0  0  0  0  0  0  0  0  0  0
    1.5091   17.5656  -17.8015 C   0  0  0  0  0  0  0  0  0  0  0  0
    0.0640   18.0801  -17.7655 C   0  0  0  0  0  0  0  0  0  0  0  0
   -0.6669   17.4219  -18.9113 C   0  0  0  0  0  0  0  0  0  0  0  0
   -0.9957   15.9946  -18.4656 C   0  0  0  0  0  0  0  0  0  0  0  0
    0.1937   15.4461  -17.6950 C   0  0  0  0  0  0  0  0  0  0  0  0
    1.4857   16.0764  -18.1448 C   0  0  0  0  0  0  0  0  0  0  0  0
    2.5264   15.4687  -17.4616 O   0  0  0  0  0  0  0  0  0  0  0  0
    2.9518   20.2432  -17.7826 C   0  0  0  0  0  0  0  0  0  0  0  0
    3.2442   21.5664  -17.8513 C   0  0  0  0  0  0  0  0  0  0  0  0
  1  2  1  0
  2  3  1  0
  2  4  1  0
  2  5  1  0
  5  6  2  0
  6  7  1  0
  7  8  2  0
  8  9  1  0
  9 10  1  0
 10 11  1  0
 11 12  1  0
 12 13  1  0
 13 14  1  0
 14 15  1  0
 15 16  1  0
  8 17  1  0
 17 18  2  0
 18  5  1  0
 15 10  1  0
M  END
$$$$
