
     RDKit          3D

 35 39  0  0  0  0  0  0  0  0999 V2000
  -31.9681   13.9585  -28.6989 C   0  0  0  0  0  0  0  0  0  0  0  0
  -32.8667   15.0342  -28.7895 O   0  0  0  0  0  0  0  0  0  0  0  0
  -32.6162   15.9425  -27.7289 C   0  0  1  0  0  0  0  0  0  0  0  0
  -32.6105   17.3316  -28.2839 C   0  0  0  0  0  0  0  0  0  0  0  0
  -33.6414   17.7674  -28.8742 O   0  0  0  0  0  0  0  0  0  0  0  0
  -31.4881   18.1537  -28.1630 N   0  0  0  0  0  0  0  0  0  0  0  0
  -31.3087   19.4651  -28.7444 C   0  0  0  0  0  0  0  0  0  0  0  0
  -30.2722   20.1085  -27.8966 C   0  0  0  0  0  0  0  0  0  0  0  0
  -29.6682   21.2486  -27.5718 N   0  0  0  0  0  0  0  0  0  0  0  0
  -28.7349   21.0280  -26.6321 N   0  0  0  0  0  0  0  0  0  0  0  0
  -28.7070   19.7211  -26.3169 C   0  0  0  0  0  0  0  0  0  0  0  0
  -27.8727   19.0364  -25.3698 N   0  0  0  0  0  0  0  0  0  0  0  0
  -26.8950   18.1392  -25.8067 C   0  0  0  0  0  0  0  0  0  0  0  0
  -26.8195   17.8868  -27.0337 O   0  0  0  0  0  0  0  0  0  0  0  0
  -25.9652   17.4886  -24.9016 C   0  0  0  0  0  0  0  0  0  0  0  0
  -25.1744   16.4205  -25.2624 C   0  0  0  0  0  0  0  0  0  0  0  0
  -24.2827   15.7829  -24.4248 C   0  0  0  0  0  0  0  0  0  0  0  0
  -24.1729   16.2541  -23.1153 C   0  0  0  0  0  0  0  0  0  0  0  0
  -23.2736   15.6631  -22.2158 N   0  0  0  0  0  0  0  0  0  0  0  0
  -22.0239   15.0774  -22.6451 C   0  0  0  0  0  0  0  0  0  0  0  0
  -21.6818   13.8733  -21.7996 C   0  0  0  0  0  0  0  0  0  0  0  0
  -22.8451   13.2567  -21.2188 N   0  0  0  0  0  0  0  0  0  0  0  0
  -23.5697   12.4284  -22.1530 C   0  0  0  0  0  0  0  0  0  0  0  0
  -23.6650   14.1150  -20.4447 C   0  0  0  0  0  0  0  0  0  0  0  0
  -23.5605   15.5930  -20.8097 C   0  0  0  0  0  0  0  0  0  0  0  0
  -24.9590   17.3283  -22.7302 C   0  0  0  0  0  0  0  0  0  0  0  0
  -25.8381   17.9415  -23.5889 C   0  0  0  0  0  0  0  0  0  0  0  0
  -29.6834   19.1328  -27.1191 C   0  0  0  0  0  0  0  0  0  0  0  0
  -30.2832   17.8045  -27.3986 C   0  0  0  0  0  0  0  0  0  0  0  0
  -33.6894   15.7673  -26.7074 C   0  0  0  0  0  0  0  0  0  0  0  0
  -34.9422   15.3190  -27.0776 C   0  0  0  0  0  0  0  0  0  0  0  0
  -35.9254   15.1417  -26.1312 C   0  0  0  0  0  0  0  0  0  0  0  0
  -35.6934   15.4031  -24.7976 C   0  0  0  0  0  0  0  0  0  0  0  0
  -34.4607   15.8480  -24.4056 C   0  0  0  0  0  0  0  0  0  0  0  0
  -33.4739   16.0228  -25.3778 C   0  0  0  0  0  0  0  0  0  0  0  0
  1  2  1  0
  3  2  1  6
  3  4  1  0
  4  5  2  0
  4  6  1  0
  6  7  1  0
  7  8  1  0
  8  9  1  0
  9 10  1  0
 10 11  2  0
 11 12  1  0
 12 13  1  0
 13 14  2  0
 13 15  1  0
 15 16  2  0
 16 17  1  0
 17 18  2  0
 18 19  1  0
 19 20  1  0
 20 21  1  0
 21 22  1  0
 22 23  1  0
 22 24  1  0
 24 25  1  0
 18 26  1  0
 26 27  2  0
 11 28  1  0
 28 29  1  0
  3 30  1  0
 30 31  2  0
 31 32  1  0
 32 33  2  0
 33 34  1  0
 34 35  2  0
 29  6  1  0
 35 30  1  0
 28  8  2  0
 27 15  1  0
 25 19  1  0
M  END
$$$$
