
     RDKit          3D

 15 15  0  0  0  0  0  0  0  0999 V2000
  -12.1960   11.1904  -27.9110 C   0  0  0  0  0  0  0  0  0  0  0  0
  -12.9265   12.4432  -28.3365 C   0  0  0  0  0  0  0  0  0  0  0  0
  -13.0130   13.3526  -27.1175 C   0  0  0  0  0  0  0  0  0  0  0  0
  -14.3249   12.1683  -28.7938 C   0  0  0  0  0  0  0  0  0  0  0  0
  -14.9535   13.3134  -29.4716 C   0  0  0  0  0  0  0  0  0  0  0  0
  -14.8135   13.5718  -30.8190 C   0  0  0  0  0  0  0  0  0  0  0  0
  -15.4178   14.6545  -31.4179 C   0  0  0  0  0  0  0  0  0  0  0  0
  -16.1879   15.5204  -30.6817 C   0  0  0  0  0  0  0  0  0  0  0  0
  -16.8525   16.6817  -31.2543 C   0  0  0  0  0  0  0  0  0  0  0  0
  -16.7735   17.9144  -30.3836 C   0  0  0  0  0  0  0  0  0  0  0  0
  -18.2760   16.3741  -31.5996 C   0  0  0  0  0  0  0  0  0  0  0  0
  -18.8956   17.2007  -32.3077 O   0  0  0  0  0  0  0  0  0  0  0  0
  -18.8585   15.2051  -31.1350 O   0  0  0  0  0  0  0  0  0  0  0  0
  -16.3234   15.2569  -29.3389 C   0  0  0  0  0  0  0  0  0  0  0  0
  -15.7237   14.1761  -28.7259 C   0  0  0  0  0  0  0  0  0  0  0  0
  1  2  1  0
  2  3  1  0
  2  4  1  0
  4  5  1  0
  5  6  2  0
  6  7  1  0
  7  8  2  0
  8  9  1  0
  9 10  1  0
  9 11  1  0
 11 12  2  0
 11 13  1  0
  8 14  1  0
 14 15  2  0
 15  5  1  0
M  END
$$$$
