
     RDKit          3D

 26 23  0  0  0  0  0  0  0  0999 V2000
  -27.4458   19.5662  -25.0802 C   0  0  0  0  0  0  0  0  0  0  0  0
  -26.7878   18.8289  -26.2268 C   0  0  0  0  0  0  0  0  0  0  0  0
  -27.5410   19.0569  -27.5597 C   0  0  0  0  0  0  0  0  0  0  0  0
  -27.5188   20.5418  -27.7553 C   0  0  0  0  0  0  0  0  0  0  0  0
  -26.0607   21.0408  -27.8159 C   0  0  0  0  0  0  0  0  0  0  0  0
  -28.7960   18.3415  -27.4740 C   0  0  2  0  0  0  0  0  0  0  0  0
  -28.6313   16.9020  -27.3274 N   0  0  0  0  0  0  0  0  0  0  0  0
  -27.5319   16.0971  -27.5919 C   0  0  0  0  0  0  0  0  0  0  0  0
  -27.5893   14.6019  -27.3335 C   0  0  0  0  0  0  0  0  0  0  0  0
  -26.4750   16.5383  -28.0397 O   0  0  0  0  0  0  0  0  0  0  0  0
  -30.0029   18.5471  -28.2591 C   0  0  2  0  0  0  0  0  0  0  0  0
  -30.0025   18.3809  -29.7206 C   0  0  2  0  0  0  0  0  0  0  0  0
  -29.1563   17.4279  -30.2372 O   0  0  0  0  0  0  0  0  0  0  0  0
  -29.9673   19.6975  -30.3927 C   0  0  1  0  0  0  0  0  0  0  0  0
  -30.7572   19.6122  -31.6731 C   0  0  0  0  0  0  0  0  0  0  0  0
  -31.7412   20.3742  -31.7993 O   0  0  0  0  0  0  0  0  0  0  0  0
  -30.3777   18.7108  -32.6523 O   0  0  0  0  0  0  0  0  0  0  0  0
  -30.6700   20.5814  -29.3952 C   0  0  0  0  0  0  0  0  0  0  0  0
  -30.7750   19.7918  -28.1154 C   0  0  1  0  0  0  0  0  0  0  0  0
  -32.2073   19.4605  -27.9826 N   0  0  0  0  0  0  0  0  0  0  0  0
  -32.6697   18.6553  -26.9075 C   0  0  0  0  0  0  0  0  0  0  0  0
  -32.0776   18.6807  -25.7769 N   0  0  0  0  0  0  0  0  0  0  0  0
  -33.7989   17.8029  -27.0591 N   0  0  0  0  0  0  0  0  0  0  0  0
  -29.0759   18.4415  -28.2217 O   0  0  0  0  0  0  0  0  0  0  0  0
  -29.0846   18.4511  -28.2162 O   0  0  0  0  0  0  0  0  0  0  0  0
  -29.0844   18.4556  -28.2115 O   0  0  0  0  0  0  0  0  0  0  0  0
  1  2  1  0
  2  3  1  0
  3  4  1  0
  4  5  1  0
  3  6  1  0
  6  7  1  6
  7  8  1  0
  8  9  1  0
  8 10  2  0
 11  6  1  6
 11 12  1  0
 12 13  1  1
 12 14  1  0
 14 15  1  6
 15 16  2  0
 15 17  1  0
 14 18  1  0
 18 19  1  0
 19 20  1  6
 20 21  1  0
 21 22  2  0
 21 23  1  0
 19 11  1  0
M  END
$$$$
