
     RDKit          3D

 21 22  0  0  0  0  0  0  0  0999 V2000
  -19.4876    0.5549  -32.1119 C   0  0  0  0  0  0  0  0  0  0  0  0
  -19.0847    1.9071  -32.4175 N   0  0  0  0  0  0  0  0  0  0  0  0
  -20.0422    2.8219  -32.9693 C   0  0  0  0  0  0  0  0  0  0  0  0
  -17.7266    2.2998  -32.1582 C   0  0  0  0  0  0  0  0  0  0  0  0
  -17.2556    3.3375  -32.6686 O   0  0  0  0  0  0  0  0  0  0  0  0
  -16.8879    1.5272  -31.3220 N   0  0  0  0  0  0  0  0  0  0  0  0
  -15.4983    1.3007  -31.4666 C   0  0  0  0  0  0  0  0  0  0  0  0
  -14.6567    2.3789  -31.1240 C   0  0  0  0  0  0  0  0  0  0  0  0
  -13.2975    2.2562  -31.2312 C   0  0  0  0  0  0  0  0  0  0  0  0
  -12.7647    1.0685  -31.6771 C   0  0  0  0  0  0  0  0  0  0  0  0
  -13.5458   -0.0053  -32.0209 C   0  0  0  0  0  0  0  0  0  0  0  0
  -12.9350   -1.2400  -32.4880 C   0  0  0  0  0  0  0  0  0  0  0  0
  -13.2950   -2.4537  -31.9025 C   0  0  0  0  0  0  0  0  0  0  0  0
  -12.7425   -3.6443  -32.3126 C   0  0  0  0  0  0  0  0  0  0  0  0
  -11.8051   -3.6849  -33.3253 C   0  0  0  0  0  0  0  0  0  0  0  0
  -11.2424   -4.9101  -33.7401 N   0  0  0  0  0  0  0  0  0  0  0  0
  -10.8862   -5.0988  -35.1294 C   0  0  0  0  0  0  0  0  0  0  0  0
  -11.0147   -5.9851  -32.7965 C   0  0  0  0  0  0  0  0  0  0  0  0
  -11.4427   -2.4822  -33.9118 C   0  0  0  0  0  0  0  0  0  0  0  0
  -11.9996   -1.2795  -33.4988 C   0  0  0  0  0  0  0  0  0  0  0  0
  -14.9262    0.1563  -31.8989 C   0  0  0  0  0  0  0  0  0  0  0  0
  1  2  1  0
  2  3  1  0
  2  4  1  0
  4  5  2  0
  4  6  1  0
  6  7  1  0
  7  8  2  0
  8  9  1  0
  9 10  2  0
 10 11  1  0
 11 12  1  0
 12 13  2  0
 13 14  1  0
 14 15  2  0
 15 16  1  0
 16 17  1  0
 16 18  1  0
 15 19  1  0
 19 20  2  0
 11 21  2  0
 21  7  1  0
 20 12  1  0
M  END
$$$$
