
     RDKit          3D

  9  9  0  0  0  0  0  0  0  0999 V2000
  -16.8132   39.6402  -21.9119 C   0  0  0  0  0  0  0  0  0  0  0  0
  -17.6261   38.4628  -21.9503 N   0  0  0  0  0  0  0  0  0  0  0  0
  -18.7784   38.3096  -21.2773 C   0  0  0  0  0  0  0  0  0  0  0  0
  -19.2947   37.0786  -21.5334 N   0  0  0  0  0  0  0  0  0  0  0  0
  -18.4647   36.4394  -22.3778 C   0  0  0  0  0  0  0  0  0  0  0  0
  -18.6211   35.0615  -22.9376 C   0  0  0  0  0  0  0  0  0  0  0  0
  -18.8515   34.0596  -21.8074 C   0  0  0  0  0  0  0  0  0  0  0  0
  -19.7270   33.0455  -22.3146 N   0  0  0  0  0  0  0  0  0  0  0  0
  -17.4218   37.3155  -22.6331 C   0  0  0  0  0  0  0  0  0  0  0  0
  1  2  1  0
  2  3  1  0
  3  4  2  0
  4  5  1  0
  5  6  1  0
  6  7  1  0
  7  8  1  0
  5  9  2  0
  9  2  1  0
M  END
$$$$
