
     RDKit          3D

 40 43  0  0  0  0  0  0  0  0999 V2000
  -23.6273   16.9416  -38.9297 C   0  0  0  0  0  0  0  0  0  0  0  0
  -23.3651   17.0262  -37.4537 C   0  0  0  0  0  0  0  0  0  0  0  0
  -23.3725   18.2346  -36.7918 C   0  0  0  0  0  0  0  0  0  0  0  0
  -23.1281   18.2819  -35.4359 C   0  0  0  0  0  0  0  0  0  0  0  0
  -23.1480   19.6039  -34.7777 C   0  0  0  0  0  0  0  0  0  0  0  0
  -22.8665   17.1457  -34.6726 C   0  0  0  0  0  0  0  0  0  0  0  0
  -22.5354   17.3589  -32.9972 S   0  0  0  0  0  6  0  0  0  0  0  0
  -23.7634   16.8807  -32.2076 O   0  0  0  0  0  0  0  0  0  0  0  0
  -21.4416   16.3823  -32.5320 O   0  0  0  0  0  0  0  0  0  0  0  0
  -22.2019   18.9178  -32.4640 N   0  0  0  0  0  0  0  0  0  0  0  0
  -22.1064   19.2215  -31.1005 C   0  0  0  0  0  0  0  0  0  0  0  0
  -23.3993   19.4304  -30.3890 C   0  0  0  0  0  0  0  0  0  0  0  0
  -24.3410   20.2764  -30.9018 C   0  0  0  0  0  0  0  0  0  0  0  0
  -25.5603   20.4982  -30.2413 C   0  0  0  0  0  0  0  0  0  0  0  0
  -25.8111   19.8545  -29.0614 C   0  0  0  0  0  0  0  0  0  0  0  0
  -27.0590   20.0368  -28.3177 C   0  0  0  0  0  0  0  0  0  0  0  0
  -27.3897   21.2031  -27.6812 C   0  0  0  0  0  0  0  0  0  0  0  0
  -28.5831   21.3045  -27.0020 C   0  0  0  0  0  0  0  0  0  0  0  0
  -29.4558   20.2462  -26.9516 C   0  0  0  0  0  0  0  0  0  0  0  0
  -29.1567   19.0593  -27.5792 C   0  0  0  0  0  0  0  0  0  0  0  0
  -30.2693   17.7047  -27.5196 S   0  0  0  0  0  6  0  0  0  0  0  0
  -31.1504   17.6857  -29.0701 C   0  0  0  0  0  0  0  0  0  0  0  0
  -31.2967   18.0381  -26.4477 O   0  0  0  0  0  0  0  0  0  0  0  0
  -29.5899   16.4164  -27.2432 O   0  0  0  0  0  0  0  0  0  0  0  0
  -27.9565   18.9773  -28.2542 C   0  0  0  0  0  0  0  0  0  0  0  0
  -24.8720   18.9957  -28.5282 C   0  0  0  0  0  0  0  0  0  0  0  0
  -23.6608   18.7848  -29.1981 C   0  0  0  0  0  0  0  0  0  0  0  0
  -21.1819   19.5388  -33.2518 C   0  0  0  0  0  0  0  0  0  0  0  0
  -19.7932   19.0665  -32.9350 C   0  0  0  0  0  0  0  0  0  0  0  0
  -19.0761   18.1043  -33.6030 C   0  0  0  0  0  0  0  0  0  0  0  0
  -17.8549   17.9908  -32.9778 C   0  0  0  0  0  0  0  0  0  0  0  0
  -17.8671   18.8954  -31.9390 C   0  0  0  0  0  0  0  0  0  0  0  0
  -16.7394   19.1149  -30.9863 C   0  0  0  0  0  0  0  0  0  0  0  0
  -15.6843   19.6080  -31.7461 F   0  0  0  0  0  0  0  0  0  0  0  0
  -16.4505   17.9244  -30.3876 F   0  0  0  0  0  0  0  0  0  0  0  0
  -17.0543   20.0868  -30.0604 F   0  0  0  0  0  0  0  0  0  0  0  0
  -19.0272   19.4985  -31.9603 O   0  0  0  0  0  0  0  0  0  0  0  0
  -22.8604   15.9445  -35.3418 C   0  0  0  0  0  0  0  0  0  0  0  0
  -22.5680   14.7110  -34.5948 C   0  0  0  0  0  0  0  0  0  0  0  0
  -23.1091   15.8933  -36.7214 C   0  0  0  0  0  0  0  0  0  0  0  0
  1  2  1  0
  2  3  2  0
  3  4  1  0
  4  5  1  0
  4  6  2  0
  6  7  1  0
  7  8  2  0
  7  9  2  0
  7 10  1  0
 10 11  1  0
 11 12  1  0
 12 13  2  0
 13 14  1  0
 14 15  2  0
 15 16  1  0
 16 17  2  0
 17 18  1  0
 18 19  2  0
 19 20  1  0
 20 21  1  0
 21 22  1  0
 21 23  2  0
 21 24  2  0
 20 25  2  0
 15 26  1  0
 26 27  2  0
 10 28  1  0
 28 29  1  0
 29 30  2  0
 30 31  1  0
 31 32  2  0
 32 33  1  0
 33 34  1  0
 33 35  1  0
 33 36  1  0
 32 37  1  0
  6 38  1  0
 38 39  1  0
 38 40  2  0
 40  2  1  0
 27 12  1  0
 37 29  1  0
 25 16  1  0
M  END
$$$$
