
     RDKit          3D

 37 41  0  0  0  0  0  0  0  0999 V2000
  -21.5312   21.9948  -34.6097 C   0  0  0  0  0  0  0  0  0  0  0  0
  -20.9179   20.8368  -35.0906 O   0  0  0  0  0  0  0  0  0  0  0  0
  -20.0072   20.1625  -34.2603 C   0  0  0  0  0  0  0  0  0  0  0  0
  -19.4582   20.8024  -33.2228 N   0  0  0  0  0  0  0  0  0  0  0  0
  -18.5819   20.2711  -32.3665 C   0  0  0  0  0  0  0  0  0  0  0  0
  -18.0501   20.9993  -31.3071 C   0  0  0  0  0  0  0  0  0  0  0  0
  -17.1561   20.3764  -30.4762 C   0  0  0  0  0  0  0  0  0  0  0  0
  -16.8004   19.0658  -30.6923 C   0  0  0  0  0  0  0  0  0  0  0  0
  -15.5513   18.2023  -29.5282 Br  0  0  0  0  0  0  0  0  0  0  0  0
  -17.3187   18.3252  -31.7408 C   0  0  0  0  0  0  0  0  0  0  0  0
  -18.2221   18.9627  -32.5763 C   0  0  0  0  0  0  0  0  0  0  0  0
  -18.7744   18.2899  -33.6346 C   0  0  0  0  0  0  0  0  0  0  0  0
  -19.6921   18.8494  -34.5296 C   0  0  0  0  0  0  0  0  0  0  0  0
  -20.2664   18.0580  -35.6746 C   0  0  1  0  0  0  0  0  0  0  0  0
  -20.2320   18.7798  -36.9485 C   0  0  0  0  0  0  0  0  0  0  0  0
  -21.3222   19.0179  -37.7385 C   0  0  0  0  0  0  0  0  0  0  0  0
  -21.2789   19.6850  -38.9382 C   0  0  0  0  0  0  0  0  0  0  0  0
  -20.0750   20.1560  -39.4019 C   0  0  0  0  0  0  0  0  0  0  0  0
  -18.9485   19.9364  -38.6340 C   0  0  0  0  0  0  0  0  0  0  0  0
  -19.0409   19.2613  -37.4357 C   0  0  0  0  0  0  0  0  0  0  0  0
  -20.1552   16.5894  -35.5879 C   0  0  1  0  0  0  0  0  0  0  0  0
  -20.6224   16.0477  -36.8030 O   0  0  0  0  0  0  0  0  0  0  0  0
  -18.6113   16.3215  -35.9447 C   0  0  0  0  0  0  0  0  0  0  0  0
  -17.7097   16.6126  -34.8006 C   0  0  0  0  0  0  0  0  0  0  0  0
  -16.3441   16.3434  -35.2647 N   0  0  0  0  0  0  0  0  0  0  0  0
  -16.2524   16.1208  -36.6721 C   0  0  0  0  0  0  0  0  0  0  0  0
  -15.5621   17.5055  -34.8811 C   0  0  0  0  0  0  0  0  0  0  0  0
  -20.3284   15.8417  -34.3876 C   0  0  0  0  0  0  0  0  0  0  0  0
  -19.3204   15.1037  -33.7634 C   0  0  0  0  0  0  0  0  0  0  0  0
  -19.4741   14.4563  -32.5549 C   0  0  0  0  0  0  0  0  0  0  0  0
  -20.6696   14.5209  -31.9028 C   0  0  0  0  0  0  0  0  0  0  0  0
  -21.6856   15.2211  -32.4577 C   0  0  0  0  0  0  0  0  0  0  0  0
  -22.8962   15.2526  -31.7844 C   0  0  0  0  0  0  0  0  0  0  0  0
  -23.9900   15.9233  -32.2896 C   0  0  0  0  0  0  0  0  0  0  0  0
  -23.8489   16.5644  -33.4868 C   0  0  0  0  0  0  0  0  0  0  0  0
  -22.6188   16.5228  -34.1530 C   0  0  0  0  0  0  0  0  0  0  0  0
  -21.5142   15.8636  -33.6710 C   0  0  0  0  0  0  0  0  0  0  0  0
  1  2  1  0
  2  3  1  0
  3  4  2  0
  4  5  1  0
  5  6  2  0
  6  7  1  0
  7  8  2  0
  8  9  1  0
  8 10  1  0
 10 11  2  0
 11 12  1  0
 12 13  2  0
 14 13  1  1
 14 15  1  0
 15 16  2  0
 16 17  1  0
 17 18  2  0
 18 19  1  0
 19 20  2  0
 14 21  1  0
 21 22  1  6
 21 23  1  0
 23 24  1  0
 24 25  1  0
 25 26  1  0
 25 27  1  0
 21 28  1  0
 28 29  2  0
 29 30  1  0
 30 31  2  0
 31 32  1  0
 32 33  2  0
 33 34  1  0
 34 35  2  0
 35 36  1  0
 36 37  2  0
 13  3  1  0
 20 15  1  0
 37 28  1  0
 11  5  1  0
 37 32  1  0
M  END
$$$$
