
     RDKit          3D

 36 41  0  0  0  0  0  0  0  0999 V2000
  -26.6835   22.4719  -29.7132 C   0  0  0  0  0  0  0  0  0  0  0  0
  -26.1914   23.2806  -30.8697 C   0  0  0  0  0  0  0  0  0  0  0  0
  -25.2291   24.0909  -30.7106 O   0  0  0  0  0  0  0  0  0  0  0  0
  -26.7436   23.1877  -32.1285 O   0  0  0  0  0  0  0  0  0  0  0  0
  -26.3156   23.9322  -33.2337 C   0  0  0  0  0  0  0  0  0  0  0  0
  -24.9655   23.6560  -33.7094 C   0  0  0  0  0  0  0  0  0  0  0  0
  -24.3888   22.6763  -33.2478 O   0  0  0  0  0  0  0  0  0  0  0  0
  -24.2953   24.5091  -34.7140 C   0  0  1  0  0  0  0  0  0  0  0  0
  -25.1434   25.4489  -35.2359 O   0  0  0  0  0  0  0  0  0  0  0  0
  -24.8029   26.6654  -34.7352 C   0  0  0  0  0  0  0  0  0  0  0  0
  -25.6779   27.1840  -33.6079 C   0  0  0  0  0  0  0  0  0  0  0  0
  -25.2279   28.6290  -33.4942 C   0  0  0  0  0  0  0  0  0  0  0  0
  -24.6205   29.0061  -34.8174 C   0  0  0  0  0  0  0  0  0  0  0  0
  -24.9492   27.8101  -35.7230 C   0  0  0  0  0  0  0  0  0  0  0  0
  -23.5255   26.6454  -34.2495 O   0  0  0  0  0  0  0  0  0  0  0  0
  -23.1432   25.3211  -34.1873 C   0  0  2  0  0  0  0  0  0  0  0  0
  -22.0045   25.2167  -35.2217 C   0  0  0  0  0  0  0  0  0  0  0  0
  -22.7674   24.7493  -36.4231 C   0  0  1  0  0  0  0  0  0  0  0  0
  -21.9250   24.2096  -37.5465 C   0  0  2  0  0  0  0  0  0  0  0  0
  -21.4149   25.4288  -38.2982 C   0  0  0  0  0  0  0  0  0  0  0  0
  -20.7689   25.1067  -39.5912 C   0  0  0  0  0  0  0  0  0  0  0  0
  -21.4061   23.9941  -40.3273 C   0  0  0  0  0  0  0  0  0  0  0  0
  -21.5518   23.9943  -41.6356 C   0  0  0  0  0  0  0  0  0  0  0  0
  -22.1815   22.8944  -42.3621 C   0  0  0  0  0  0  0  0  0  0  0  0
  -22.3317   22.8693  -43.5980 O   0  0  0  0  0  0  0  0  0  0  0  0
  -22.6607   21.7608  -41.5866 C   0  0  0  0  0  0  0  0  0  0  0  0
  -22.5125   21.7696  -40.2936 C   0  0  0  0  0  0  0  0  0  0  0  0
  -21.8936   22.8416  -39.5342 C   0  0  1  0  0  0  0  0  0  0  0  0
  -20.6294   22.2607  -38.8780 C   0  0  0  0  0  0  0  0  0  0  0  0
  -22.8002   23.4385  -38.4796 C   0  0  2  0  0  0  0  0  0  0  0  0
  -23.6112   24.3586  -39.1416 F   0  0  0  0  0  0  0  0  0  0  0  0
  -23.6720   22.4249  -37.8564 C   0  0  1  0  0  0  0  0  0  0  0  0
  -23.0498   21.2574  -37.4410 O   0  0  0  0  0  0  0  0  0  0  0  0
  -24.5269   23.0020  -36.7323 C   0  0  0  0  0  0  0  0  0  0  0  0
  -23.6125   23.6743  -35.7763 C   0  0  2  0  0  0  0  0  0  0  0  0
  -22.7588   22.6491  -35.0843 C   0  0  0  0  0  0  0  0  0  0  0  0
  1  2  1  0
  2  3  2  0
  2  4  1  0
  4  5  1  0
  5  6  1  0
  6  7  2  0
  8  6  1  1
  8  9  1  0
  9 10  1  0
 10 11  1  0
 11 12  1  0
 12 13  1  0
 13 14  1  0
 10 15  1  0
 15 16  1  0
 16 17  1  6
 18 17  1  1
 18 19  1  0
 19 20  1  6
 20 21  1  0
 21 22  1  0
 22 23  2  0
 23 24  1  0
 24 25  2  0
 24 26  1  0
 26 27  2  0
 27 28  1  0
 28 29  1  1
 28 30  1  0
 30 31  1  6
 30 32  1  0
 32 33  1  1
 32 34  1  0
 34 35  1  0
 35 36  1  1
 16  8  1  0
 35 18  1  0
 35  8  1  0
 14 10  1  0
 30 19  1  0
 28 22  1  0
M  END
$$$$
