
     RDKit          3D

 22 23  0  0  0  0  0  0  0  0999 V2000
  -26.3725   -1.4149  -31.2279 C   0  0  0  0  0  0  0  0  0  0  0  0
  -25.3203   -0.5025  -31.5069 N   0  0  0  0  0  0  0  0  0  0  0  0
  -25.6300    0.3402  -32.6216 C   0  0  0  0  0  0  0  0  0  0  0  0
  -24.0136   -1.0626  -31.5358 C   0  0  0  0  0  0  0  0  0  0  0  0
  -22.9387   -0.0461  -31.8367 C   0  0  0  0  0  0  0  0  0  0  0  0
  -21.5392   -0.7066  -31.8563 C   0  0  0  0  0  0  0  0  0  0  0  0
  -20.5256    0.2568  -32.1237 N   0  0  0  0  0  0  0  0  0  0  0  0
  -20.3601    1.3431  -31.1843 C   0  0  0  0  0  0  0  0  0  0  0  0
  -20.8822    1.0172  -29.9584 C   0  0  0  0  0  0  0  0  0  0  0  0
  -20.8337    1.9268  -28.9143 C   0  0  0  0  0  0  0  0  0  0  0  0
  -20.2465    3.1432  -29.1703 C   0  0  0  0  0  0  0  0  0  0  0  0
  -19.7216    3.4631  -30.4083 C   0  0  0  0  0  0  0  0  0  0  0  0
  -19.7660    2.5526  -31.4666 C   0  0  0  0  0  0  0  0  0  0  0  0
  -19.1138    3.1485  -32.6407 C   0  0  0  0  0  0  0  0  0  0  0  0
  -19.4384    2.5656  -33.9636 C   0  0  0  0  0  0  0  0  0  0  0  0
  -19.2550    1.1121  -34.1140 C   0  0  0  0  0  0  0  0  0  0  0  0
  -18.5015    0.7255  -35.2268 C   0  0  0  0  0  0  0  0  0  0  0  0
  -18.2765   -0.6179  -35.4775 C   0  0  0  0  0  0  0  0  0  0  0  0
  -18.7761   -1.6171  -34.6552 C   0  0  0  0  0  0  0  0  0  0  0  0
  -19.5168   -1.2485  -33.5595 C   0  0  0  0  0  0  0  0  0  0  0  0
  -19.7320    0.0916  -33.3239 C   0  0  0  0  0  0  0  0  0  0  0  0
  -22.0767    0.2185  -32.0270 Cl  0  0  0  0  0  0  0  0  0  0  0  0
  1  2  1  0
  2  3  1  0
  2  4  1  0
  4  5  1  0
  5  6  1  0
  6  7  1  0
  7  8  1  0
  8  9  2  0
  9 10  1  0
 10 11  2  0
 11 12  1  0
 12 13  2  0
 13 14  1  0
 14 15  1  0
 15 16  1  0
 16 17  2  0
 17 18  1  0
 18 19  2  0
 19 20  1  0
 20 21  2  0
 21  7  1  0
 13  8  1  0
 21 16  1  0
M  END
$$$$
