
     RDKit          3D

 26 28  0  0  0  0  0  0  0  0999 V2000
  -15.2447   42.4565  -22.3151 C   0  0  0  0  0  0  0  0  0  0  0  0
  -16.2553   41.5583  -21.9282 O   0  0  0  0  0  0  0  0  0  0  0  0
  -17.3378   41.2827  -22.7472 C   0  0  0  0  0  0  0  0  0  0  0  0
  -17.8941   42.1985  -23.6001 C   0  0  0  0  0  0  0  0  0  0  0  0
  -18.9739   41.8671  -24.3941 C   0  0  0  0  0  0  0  0  0  0  0  0
  -19.5446   40.6116  -24.3719 C   0  0  0  0  0  0  0  0  0  0  0  0
  -18.9835   39.6711  -23.5045 C   0  0  0  0  0  0  0  0  0  0  0  0
  -17.9093   40.0028  -22.7161 C   0  0  0  0  0  0  0  0  0  0  0  0
  -17.3387   39.0707  -21.8224 N   0  0  0  0  0  0  0  0  0  0  0  0
  -18.3001   38.1254  -20.7629 S   0  0  0  0  0  6  0  0  0  0  0  0
  -17.4530   37.6611  -19.6077 O   0  0  0  0  0  0  0  0  0  0  0  0
  -19.4728   38.8602  -20.2338 O   0  0  0  0  0  0  0  0  0  0  0  0
  -18.7988   36.6719  -21.6291 C   0  0  0  0  0  0  0  0  0  0  0  0
  -20.1275   36.4461  -21.9060 C   0  0  0  0  0  0  0  0  0  0  0  0
  -20.5604   35.3275  -22.5783 C   0  0  0  0  0  0  0  0  0  0  0  0
  -19.6378   34.4008  -22.9893 C   0  0  0  0  0  0  0  0  0  0  0  0
  -20.2214   32.8461  -23.9215 Br  0  0  0  0  0  0  0  0  0  0  0  0
  -18.3109   34.6016  -22.7265 C   0  0  0  0  0  0  0  0  0  0  0  0
  -17.8914   35.7209  -22.0554 C   0  0  0  0  0  0  0  0  0  0  0  0
  -16.4357   35.9599  -21.7565 C   0  0  0  0  0  0  0  0  0  0  0  0
  -20.5860   40.5331  -25.2362 N   0  0  0  0  0  0  0  0  0  0  0  0
  -21.4356   39.3773  -25.4949 C   0  0  0  0  0  0  0  0  0  0  0  0
  -20.6656   41.7530  -25.8035 C   0  0  0  0  0  0  0  0  0  0  0  0
  -21.5402   42.0287  -26.6690 O   0  0  0  0  0  0  0  0  0  0  0  0
  -19.7084   42.5579  -25.3086 N   0  0  0  0  0  0  0  0  0  0  0  0
  -19.4843   43.9334  -25.6782 C   0  0  0  0  0  0  0  0  0  0  0  0
  1  2  1  0
  2  3  1  0
  3  4  2  0
  4  5  1  0
  5  6  2  0
  6  7  1  0
  7  8  2  0
  8  9  1  0
  9 10  1  0
 10 11  2  0
 10 12  2  0
 10 13  1  0
 13 14  2  0
 14 15  1  0
 15 16  2  0
 16 17  1  0
 16 18  1  0
 18 19  2  0
 19 20  1  0
  6 21  1  0
 21 22  1  0
 21 23  1  0
 23 24  2  0
 23 25  1  0
 25 26  1  0
  8  3  1  0
 19 13  1  0
 25  5  1  0
M  END
$$$$
