
     RDKit          3D

 25 27  0  0  0  0  0  0  0  0999 V2000
  -15.5526   42.4323  -20.1438 C   0  0  0  0  0  0  0  0  0  0  0  0
  -16.1032   43.5796  -20.9094 C   0  0  0  0  0  0  0  0  0  0  0  0
  -17.2892   43.6630  -21.4959 C   0  0  0  0  0  0  0  0  0  0  0  0
  -18.2532   42.5294  -21.4353 C   0  0  0  0  0  0  0  0  0  0  0  0
  -18.8814   42.1970  -22.7021 C   0  0  0  0  0  0  0  0  0  0  0  0
  -18.1990   41.7855  -23.6757 O   0  0  0  0  0  0  0  0  0  0  0  0
  -20.2474   42.3282  -22.8699 O   0  0  0  0  0  0  0  0  0  0  0  0
  -17.4191   44.9603  -22.1385 C   0  0  0  0  0  0  0  0  0  0  0  0
  -18.4463   45.4772  -22.8700 C   0  0  0  0  0  0  0  0  0  0  0  0
  -18.3096   46.7402  -23.3976 C   0  0  0  0  0  0  0  0  0  0  0  0
  -19.2984   47.3010  -24.1267 F   0  0  0  0  0  0  0  0  0  0  0  0
  -17.1549   47.4983  -23.2052 C   0  0  0  0  0  0  0  0  0  0  0  0
  -16.1093   46.9631  -22.4569 C   0  0  0  0  0  0  0  0  0  0  0  0
  -16.2586   45.7047  -21.9338 C   0  0  0  0  0  0  0  0  0  0  0  0
  -15.3782   44.8640  -21.1453 C   0  0  0  0  0  0  0  0  0  0  0  0
  -14.1630   45.1151  -20.7275 C   0  0  0  0  0  0  0  0  0  0  0  0
  -13.4815   44.3093  -19.7413 C   0  0  0  0  0  0  0  0  0  0  0  0
  -12.9236   45.0231  -18.6619 C   0  0  0  0  0  0  0  0  0  0  0  0
  -12.2711   44.3687  -17.6411 C   0  0  0  0  0  0  0  0  0  0  0  0
  -12.1622   43.0042  -17.6711 C   0  0  0  0  0  0  0  0  0  0  0  0
  -11.3465   42.1519  -16.3634 S   0  0  0  0  0  4  0  0  0  0  0  0
   -9.8763   42.9658  -15.7891 C   0  0  0  0  0  0  0  0  0  0  0  0
  -11.1174   40.6889  -16.6470 O   0  0  0  0  0  0  0  0  0  0  0  0
  -12.7071   42.3125  -18.7255 C   0  0  0  0  0  0  0  0  0  0  0  0
  -13.3686   42.9626  -19.7654 C   0  0  0  0  0  0  0  0  0  0  0  0
  1  2  1  0
  2  3  2  0
  3  4  1  0
  4  5  1  0
  5  6  2  0
  5  7  1  0
  3  8  1  0
  8  9  2  0
  9 10  1  0
 10 11  1  0
 10 12  2  0
 12 13  1  0
 13 14  2  0
 14 15  1  0
 15 16  2  0
 16 17  1  0
 17 18  2  0
 18 19  1  0
 19 20  2  0
 20 21  1  0
 21 22  1  0
 21 23  2  0
 20 24  1  0
 24 25  2  0
 15  2  1  0
 25 17  1  0
 14  8  1  0
M  END
$$$$
