
     RDKit          3D

 39 43  0  0  0  0  0  0  0  0999 V2000
  -11.5980   18.5405  -43.8123 C   0  0  0  0  0  0  0  0  0  0  0  0
  -11.9083   18.4902  -42.3636 C   0  0  0  0  0  0  0  0  0  0  0  0
  -10.8763   18.5420  -41.4464 C   0  0  0  0  0  0  0  0  0  0  0  0
  -11.1646   18.4887  -40.0990 C   0  0  0  0  0  0  0  0  0  0  0  0
  -12.4723   18.3841  -39.6324 C   0  0  0  0  0  0  0  0  0  0  0  0
  -12.7324   18.3132  -38.2399 N   0  0  0  0  0  0  0  0  0  0  0  0
  -13.6565   17.3634  -37.6994 C   0  0  0  0  0  0  0  0  0  0  0  0
  -14.5742   16.9622  -38.4160 O   0  0  0  0  0  0  0  0  0  0  0  0
  -13.5129   16.9008  -36.3666 N   0  0  0  0  0  0  0  0  0  0  0  0
  -14.5490   16.6405  -35.4553 C   0  0  0  0  0  0  0  0  0  0  0  0
  -15.5624   15.7338  -35.6336 C   0  0  0  0  0  0  0  0  0  0  0  0
  -16.5686   15.5150  -34.6898 C   0  0  0  0  0  0  0  0  0  0  0  0
  -17.6481   14.5338  -34.9227 C   0  0  0  0  0  0  0  0  0  0  0  0
  -18.5495   14.5572  -33.8731 F   0  0  0  0  0  0  0  0  0  0  0  0
  -17.1575   13.2517  -35.0228 F   0  0  0  0  0  0  0  0  0  0  0  0
  -18.2861   14.8827  -36.0931 F   0  0  0  0  0  0  0  0  0  0  0  0
  -16.5230   16.2518  -33.5363 C   0  0  0  0  0  0  0  0  0  0  0  0
  -15.5261   17.1824  -33.2969 C   0  0  0  0  0  0  0  0  0  0  0  0
  -14.5743   17.3477  -34.2585 C   0  0  0  0  0  0  0  0  0  0  0  0
  -13.5952   18.2682  -34.0146 F   0  0  0  0  0  0  0  0  0  0  0  0
  -13.4764   18.3350  -40.5715 C   0  0  0  0  0  0  0  0  0  0  0  0
  -13.2105   18.3868  -41.9463 C   0  0  0  0  0  0  0  0  0  0  0  0
  -14.2419   18.3135  -42.8897 N   0  0  0  0  0  0  0  0  0  0  0  0
  -15.3161   19.2556  -42.8885 C   0  0  0  0  0  0  0  0  0  0  0  0
  -15.3354   20.2957  -41.9501 C   0  0  0  0  0  0  0  0  0  0  0  0
  -16.3567   21.2185  -41.9464 C   0  0  0  0  0  0  0  0  0  0  0  0
  -17.3826   21.1427  -42.8629 C   0  0  0  0  0  0  0  0  0  0  0  0
  -17.3977   20.1345  -43.8003 C   0  0  0  0  0  0  0  0  0  0  0  0
  -16.3551   19.2102  -43.7875 C   0  0  0  0  0  0  0  0  0  0  0  0
  -18.5636   20.3000  -44.6191 N   0  0  0  0  0  0  0  0  0  0  0  0
  -19.3022   21.4313  -44.1967 C   0  0  0  0  0  0  0  0  0  0  0  0
  -20.3716   21.8417  -44.7076 O   0  0  0  0  0  0  0  0  0  0  0  0
  -18.5742   21.9932  -43.0765 C   0  0  0  0  0  0  0  0  0  0  0  0
  -18.9491   23.0341  -42.3901 C   0  0  0  0  0  0  0  0  0  0  0  0
  -20.2147   23.7415  -42.4923 C   0  0  0  0  0  0  0  0  0  0  0  0
  -21.1700   23.3427  -43.4425 C   0  0  0  0  0  0  0  0  0  0  0  0
  -22.2864   24.1349  -43.3216 C   0  0  0  0  0  0  0  0  0  0  0  0
  -22.0055   25.0202  -42.2904 C   0  0  0  0  0  0  0  0  0  0  0  0
  -20.7526   24.7447  -41.8245 N   0  0  0  0  0  0  0  0  0  0  0  0
  1  2  1  0
  2  3  2  0
  3  4  1  0
  4  5  2  0
  5  6  1  0
  6  7  1  0
  7  8  2  0
  7  9  1  0
  9 10  1  0
 10 11  2  0
 11 12  1  0
 12 13  1  0
 13 14  1  0
 13 15  1  0
 13 16  1  0
 12 17  2  0
 17 18  1  0
 18 19  2  0
 19 20  1  0
  5 21  1  0
 21 22  2  0
 22 23  1  0
 23 24  1  0
 24 25  2  0
 25 26  1  0
 26 27  2  0
 27 28  1  0
 28 29  2  0
 28 30  1  0
 30 31  1  0
 31 32  2  0
 31 33  1  0
 33 34  2  0
 34 35  1  0
 35 36  2  0
 36 37  1  0
 37 38  2  0
 38 39  1  0
 22  2  1  0
 29 24  1  0
 39 35  1  0
 19 10  1  0
 33 27  1  0
M  END
$$$$
