
     RDKit          3D

 23 24  0  0  0  0  0  0  0  0999 V2000
  -21.1885   19.8313  -30.3644 O   0  0  0  0  0  0  0  0  0  0  0  0
  -21.7494   19.1596  -31.2775 C   0  0  0  0  0  0  0  0  0  0  0  0
  -23.1735   19.0331  -31.0775 N   0  0  0  0  0  0  0  0  0  0  0  0
  -23.7601   19.6887  -29.9288 C   0  0  0  0  0  0  0  0  0  0  0  0
  -24.1068   18.7445  -28.8300 C   0  0  2  0  0  0  0  0  0  0  0  0
  -24.7344   17.6295  -29.3531 O   0  0  0  0  0  0  0  0  0  0  0  0
  -25.0210   19.4788  -27.8600 C   0  0  0  0  0  0  0  0  0  0  0  0
  -24.2685   20.4501  -27.1841 O   0  0  0  0  0  0  0  0  0  0  0  0
  -21.0885   18.5650  -32.4122 C   0  0  0  0  0  0  0  0  0  0  0  0
  -21.7470   18.4595  -33.6197 C   0  0  0  0  0  0  0  0  0  0  0  0
  -21.1302   17.8819  -34.7383 C   0  0  0  0  0  0  0  0  0  0  0  0
  -19.8801   17.4207  -34.6464 N   0  0  0  0  0  0  0  0  0  0  0  0
  -19.2121   17.5068  -33.4918 C   0  0  0  0  0  0  0  0  0  0  0  0
  -19.8180   18.0841  -32.3584 C   0  0  0  0  0  0  0  0  0  0  0  0
  -19.0566   18.1232  -31.1721 N   0  0  0  0  0  0  0  0  0  0  0  0
  -17.9614   17.1782  -31.0120 C   0  0  0  0  0  0  0  0  0  0  0  0
  -18.1305   15.8614  -31.4081 C   0  0  0  0  0  0  0  0  0  0  0  0
  -17.1153   14.9342  -31.3014 C   0  0  0  0  0  0  0  0  0  0  0  0
  -15.9059   15.3480  -30.7839 C   0  0  0  0  0  0  0  0  0  0  0  0
  -14.3206   13.9476  -30.6047 I   0  0  0  0  0  0  0  0  0  0  0  0
  -15.7555   16.6506  -30.3979 C   0  0  0  0  0  0  0  0  0  0  0  0
  -16.7670   17.5992  -30.4981 C   0  0  0  0  0  0  0  0  0  0  0  0
  -16.5780   18.8829  -30.1149 F   0  0  0  0  0  0  0  0  0  0  0  0
  1  2  2  0
  2  3  1  0
  3  4  1  0
  4  5  1  0
  5  6  1  6
  5  7  1  0
  7  8  1  0
  2  9  1  0
  9 10  2  0
 10 11  1  0
 11 12  2  0
 12 13  1  0
 13 14  2  0
 14 15  1  0
 15 16  1  0
 16 17  2  0
 17 18  1  0
 18 19  2  0
 19 20  1  0
 19 21  1  0
 21 22  2  0
 22 23  1  0
 14  9  1  0
 22 16  1  0
M  END
$$$$
