
     RDKit          3D

 39 43  0  0  0  0  0  0  0  0999 V2000
  -23.2440   20.3529  -37.1468 C   0  0  0  0  0  0  0  0  0  0  0  0
  -21.8274   19.8605  -37.0435 C   0  0  0  0  0  0  0  0  0  0  0  0
  -20.8750   20.4550  -37.7869 C   0  0  0  0  0  0  0  0  0  0  0  0
  -19.6229   19.8965  -37.8648 C   0  0  0  0  0  0  0  0  0  0  0  0
  -19.3618   18.7093  -37.1419 C   0  0  0  0  0  0  0  0  0  0  0  0
  -18.0842   18.1302  -37.2863 C   0  0  0  0  0  0  0  0  0  0  0  0
  -17.4039   17.9338  -36.2333 O   0  0  0  0  0  0  0  0  0  0  0  0
  -17.5205   17.7793  -38.5819 N   0  0  0  0  0  0  0  0  0  0  0  0
  -16.1497   17.3563  -38.4370 C   0  0  0  0  0  0  0  0  0  0  0  0
  -15.3907   17.4685  -39.6114 C   0  0  0  0  0  0  0  0  0  0  0  0
  -14.0503   17.2791  -39.5473 C   0  0  0  0  0  0  0  0  0  0  0  0
  -13.4849   16.9735  -38.3065 C   0  0  0  0  0  0  0  0  0  0  0  0
  -12.0289   16.6459  -38.4199 C   0  0  0  0  0  0  0  0  0  0  0  0
  -11.3542   17.8480  -38.7155 N   0  0  0  0  0  0  0  0  0  0  0  0
  -11.8940   18.9081  -39.4218 C   0  0  0  0  0  0  0  0  0  0  0  0
  -11.5525   18.8076  -40.9194 C   0  0  0  0  0  0  0  0  0  0  0  0
  -10.1285   18.7488  -41.0183 N   0  0  0  0  0  0  0  0  0  0  0  0
   -9.4879   20.0385  -40.8436 C   0  0  0  0  0  0  0  0  0  0  0  0
   -9.4917   17.7089  -40.2750 C   0  0  0  0  0  0  0  0  0  0  0  0
   -9.9145   17.6881  -38.8203 C   0  0  0  0  0  0  0  0  0  0  0  0
  -14.1751   16.8514  -37.1706 C   0  0  0  0  0  0  0  0  0  0  0  0
  -13.5463   16.6891  -35.8650 C   0  0  0  0  0  0  0  0  0  0  0  0
  -13.1480   15.3460  -35.7352 F   0  0  0  0  0  0  0  0  0  0  0  0
  -14.5545   16.8037  -34.8440 F   0  0  0  0  0  0  0  0  0  0  0  0
  -12.4878   17.4280  -35.5343 F   0  0  0  0  0  0  0  0  0  0  0  0
  -15.5881   17.0540  -37.2411 C   0  0  0  0  0  0  0  0  0  0  0  0
  -20.3307   18.1477  -36.3733 C   0  0  0  0  0  0  0  0  0  0  0  0
  -21.6107   18.7284  -36.3304 C   0  0  0  0  0  0  0  0  0  0  0  0
  -22.5734   18.1293  -35.5324 C   0  0  0  0  0  0  0  0  0  0  0  0
  -23.6364   17.4394  -34.6476 C   0  0  0  0  0  0  0  0  0  0  0  0
  -24.3126   17.0114  -34.0854 C   0  0  0  0  0  0  0  0  0  0  0  0
  -24.4709   15.3967  -34.2298 C   0  0  0  0  0  0  0  0  0  0  0  0
  -24.9139   14.8779  -33.1934 N   0  0  0  0  0  0  0  0  0  0  0  0
  -25.1162   15.7831  -32.2810 C   0  0  0  0  0  0  0  0  0  0  0  0
  -25.4811   15.5814  -30.9541 C   0  0  0  0  0  0  0  0  0  0  0  0
  -25.5416   16.6747  -30.1422 C   0  0  0  0  0  0  0  0  0  0  0  0
  -25.2565   17.9203  -30.6536 C   0  0  0  0  0  0  0  0  0  0  0  0
  -24.8876   18.0741  -31.9657 N   0  0  0  0  0  0  0  0  0  0  0  0
  -24.8256   17.0188  -32.6996 N   0  0  0  0  0  0  0  0  0  0  0  0
  1  2  1  0
  2  3  2  0
  3  4  1  0
  4  5  2  0
  5  6  1  0
  6  7  2  0
  6  8  1  0
  8  9  1  0
  9 10  2  0
 10 11  1  0
 11 12  2  0
 12 13  1  0
 13 14  1  0
 14 15  1  0
 15 16  1  0
 16 17  1  0
 17 18  1  0
 17 19  1  0
 19 20  1  0
 12 21  1  0
 21 22  1  0
 22 23  1  0
 22 24  1  0
 22 25  1  0
 21 26  2  0
  5 27  1  0
 27 28  2  0
 28 29  1  0
 29 30  3  0
 30 31  1  0
 31 32  2  0
 32 33  1  0
 33 34  2  0
 34 35  1  0
 35 36  2  0
 36 37  1  0
 37 38  2  0
 38 39  1  0
 28  2  1  0
 39 31  1  0
 26  9  1  0
 39 34  1  0
 20 14  1  0
M  END
$$$$
