
     RDKit          3D

 27 33  0  0  0  0  0  0  0  0999 V2000
  -30.1433   20.9776  -27.5129 C   0  0  0  0  0  0  0  0  0  0  0  0
  -29.5576   19.8284  -28.2485 C   0  0  2  0  0  0  0  0  0  0  0  0
  -28.0572   20.0033  -28.2820 C   0  0  0  0  0  0  0  0  0  0  0  0
  -27.7659   21.2632  -29.0354 C   0  0  0  0  0  0  0  0  0  0  0  0
  -28.4094   21.4109  -30.3488 C   0  0  1  0  0  0  0  0  0  0  0  0
  -29.8324   20.9806  -30.4557 C   0  0  2  0  0  0  0  0  0  0  0  0
  -29.9787   19.7034  -29.6880 C   0  0  2  0  0  0  0  0  0  0  0  0
  -31.2656   19.0123  -29.7526 C   0  0  2  0  0  0  0  0  0  0  0  0
  -32.2863   18.9500  -28.7085 C   0  0  0  0  0  0  0  0  0  0  0  0
  -31.1414   18.0170  -28.5602 C   0  0  2  0  0  0  0  0  0  0  0  0
  -29.9916   18.4880  -27.7328 C   0  0  1  0  0  0  0  0  0  0  0  0
  -28.9086   17.4381  -27.7626 C   0  0  0  0  0  0  0  0  0  0  0  0
  -29.4632   16.4035  -26.7950 C   0  0  0  0  0  0  0  0  0  0  0  0
  -30.1216   17.2667  -25.7931 C   0  0  0  0  0  0  0  0  0  0  0  0
  -30.4472   16.9467  -24.6277 O   0  0  0  0  0  0  0  0  0  0  0  0
  -30.3310   18.5167  -26.3492 O   0  0  0  0  0  0  0  0  0  0  0  0
  -30.1112   20.6822  -31.9102 C   0  0  1  0  0  0  0  0  0  0  0  0
  -31.0288   21.5427  -32.6928 C   0  0  0  0  0  0  0  0  0  0  0  0
  -29.5258   21.6788  -32.7984 C   0  0  1  0  0  0  0  0  0  0  0  0
  -28.8879   22.8574  -32.1800 C   0  0  0  0  0  0  0  0  0  0  0  0
  -28.7295   23.9774  -32.8720 C   0  0  0  0  0  0  0  0  0  0  0  0
  -28.0941   25.1092  -32.2154 C   0  0  0  0  0  0  0  0  0  0  0  0
  -28.3995   26.2829  -32.4766 O   0  0  0  0  0  0  0  0  0  0  0  0
  -27.0305   24.8741  -31.1840 C   0  0  0  0  0  0  0  0  0  0  0  0
  -26.9992   23.4419  -30.7432 C   0  0  0  0  0  0  0  0  0  0  0  0
  -28.3833   22.8876  -30.7682 C   0  0  2  0  0  0  0  0  0  0  0  0
  -29.3430   23.7180  -29.9722 C   0  0  0  0  0  0  0  0  0  0  0  0
  2  1  1  1
  2  3  1  0
  3  4  1  0
  5  4  1  1
  5  6  1  0
  6  7  1  0
  7  8  1  1
  8  9  1  1
 10  9  1  1
 10 11  1  0
 11 12  1  1
 12 13  1  0
 13 14  1  0
 14 15  2  0
 14 16  1  0
  6 17  1  6
 17 18  1  1
 19 18  1  6
 19 20  1  0
 20 21  2  0
 21 22  1  0
 22 23  2  0
 22 24  1  0
 24 25  1  0
 25 26  1  0
 26 27  1  1
  7  2  1  0
 10  8  1  0
 16 11  1  0
 19 17  1  0
 26 20  1  0
 11  2  1  0
 26  5  1  0
M  END
$$$$
