
     RDKit          3D

 32 34  0  0  0  0  0  0  0  0999 V2000
   -9.3076   -5.9199  -24.3551 N   0  0  0  0  0  0  0  0  0  0  0  0
   -9.7816   -4.6507  -24.9381 C   0  0  0  0  0  0  0  0  0  0  0  0
  -11.0579   -4.9793  -25.6446 C   0  0  0  0  0  0  0  0  0  0  0  0
  -12.1391   -5.4513  -24.6813 C   0  0  0  0  0  0  0  0  0  0  0  0
  -13.4370   -5.2813  -25.4105 C   0  0  0  0  0  0  0  0  0  0  0  0
  -13.3575   -5.4347  -26.8894 C   0  0  0  0  0  0  0  0  0  0  0  0
  -14.7354   -5.9130  -27.3519 C   0  0  0  0  0  0  0  0  0  0  0  0
  -15.7003   -4.8873  -26.9983 N   0  0  0  0  0  0  0  0  0  0  0  0
  -16.2506   -3.9486  -27.8971 C   0  0  0  0  0  0  0  0  0  0  0  0
  -15.7810   -3.8735  -29.1819 N   0  0  0  0  0  0  0  0  0  0  0  0
  -16.2632   -2.9775  -30.0576 C   0  0  0  0  0  0  0  0  0  0  0  0
  -15.7276   -2.9532  -31.3719 N   0  0  0  0  0  0  0  0  0  0  0  0
  -14.7698   -3.9189  -31.8349 C   0  0  0  0  0  0  0  0  0  0  0  0
  -13.6961   -3.2561  -32.6029 C   0  0  0  0  0  0  0  0  0  0  0  0
  -13.9635   -2.0049  -33.1709 C   0  0  0  0  0  0  0  0  0  0  0  0
  -13.0411   -1.3004  -33.9045 C   0  0  0  0  0  0  0  0  0  0  0  0
  -11.7933   -1.8771  -34.0761 C   0  0  0  0  0  0  0  0  0  0  0  0
  -11.5222   -3.1013  -33.5227 C   0  0  0  0  0  0  0  0  0  0  0  0
  -12.4632   -3.8244  -32.7727 C   0  0  0  0  0  0  0  0  0  0  0  0
  -12.1056   -5.0158  -32.2707 O   0  0  0  0  0  0  0  0  0  0  0  0
  -12.1891   -6.3080  -32.7458 C   0  0  0  0  0  0  0  0  0  0  0  0
  -11.2558   -6.6733  -33.6746 F   0  0  0  0  0  0  0  0  0  0  0  0
  -12.1507   -7.2408  -31.6947 F   0  0  0  0  0  0  0  0  0  0  0  0
  -13.4445   -6.5470  -33.3375 F   0  0  0  0  0  0  0  0  0  0  0  0
  -17.2451   -2.1084  -29.6889 N   0  0  0  0  0  0  0  0  0  0  0  0
  -17.7419   -2.1321  -28.4573 C   0  0  0  0  0  0  0  0  0  0  0  0
  -17.2355   -3.0704  -27.5401 C   0  0  0  0  0  0  0  0  0  0  0  0
  -17.8064   -3.0352  -26.2672 N   0  0  0  0  0  4  0  0  0  0  0  0
  -18.7009   -2.1696  -26.0291 O   0  0  0  0  0  0  0  0  0  0  0  0
  -17.4999   -3.8451  -25.2230 O   0  0  0  0  0  1  0  0  0  0  0  0
  -12.2219   -6.2122  -27.4085 C   0  0  0  0  0  0  0  0  0  0  0  0
  -10.9360   -6.0695  -26.6812 C   0  0  0  0  0  0  0  0  0  0  0  0
  1  2  1  0
  2  3  1  0
  3  4  1  0
  4  5  1  0
  5  6  1  0
  6  7  1  0
  7  8  1  0
  8  9  1  0
  9 10  2  0
 10 11  1  0
 11 12  1  0
 12 13  1  0
 13 14  1  0
 14 15  2  0
 15 16  1  0
 16 17  2  0
 17 18  1  0
 18 19  2  0
 19 20  1  0
 20 21  1  0
 21 22  1  0
 21 23  1  0
 21 24  1  0
 11 25  2  0
 25 26  1  0
 26 27  2  0
 27 28  1  0
 28 29  2  0
 28 30  1  0
  6 31  1  0
 31 32  1  0
 32  3  1  0
 27  9  1  0
 19 14  1  0
M  CHG  2  28   1  30  -1
M  END
$$$$
