
     RDKit          3D

 35 36  0  0  0  0  0  0  0  0999 V2000
  -19.0498   13.0318  -34.8708 C   0  0  0  0  0  0  0  0  0  0  0  0
  -19.2705   14.2987  -34.0956 C   0  0  0  0  0  0  0  0  0  0  0  0
  -20.5680   14.2825  -33.3146 C   0  0  0  0  0  0  0  0  0  0  0  0
  -17.9312   14.6107  -32.9131 S   0  0  0  0  0  0  0  0  0  0  0  0
  -17.0791   16.1241  -33.1723 C   0  0  0  0  0  0  0  0  0  0  0  0
  -17.3306   17.2658  -32.4490 C   0  0  0  0  0  0  0  0  0  0  0  0
  -16.6109   18.4148  -32.7177 C   0  0  0  0  0  0  0  0  0  0  0  0
  -16.8896   19.6533  -31.9253 C   0  0  0  0  0  0  0  0  0  0  0  0
  -15.6112   20.4860  -31.7731 C   0  0  0  0  0  0  0  0  0  0  0  0
  -17.4134   19.3601  -30.5565 C   0  0  0  0  0  0  0  0  0  0  0  0
  -17.8703   20.5204  -32.6650 C   0  0  0  0  0  0  0  0  0  0  0  0
  -15.6473   18.4206  -33.7026 C   0  0  0  0  0  0  0  0  0  0  0  0
  -14.9314   19.5991  -33.9549 O   0  0  0  0  0  0  0  0  0  0  0  0
  -15.3797   17.2882  -34.4389 C   0  0  0  0  0  0  0  0  0  0  0  0
  -14.3320   17.3113  -35.5032 C   0  0  0  0  0  0  0  0  0  0  0  0
  -14.6574   18.2619  -36.6144 C   0  0  0  0  0  0  0  0  0  0  0  0
  -13.0129   17.7396  -34.8880 C   0  0  0  0  0  0  0  0  0  0  0  0
  -14.1937   15.9059  -36.0329 C   0  0  0  0  0  0  0  0  0  0  0  0
  -16.1108   16.1656  -34.1478 C   0  0  0  0  0  0  0  0  0  0  0  0
  -19.2271   15.6990  -35.2564 S   0  0  0  0  0  0  0  0  0  0  0  0
  -20.7721   16.5095  -35.4611 C   0  0  0  0  0  0  0  0  0  0  0  0
  -21.2747   17.3494  -34.4887 C   0  0  0  0  0  0  0  0  0  0  0  0
  -22.5083   17.9791  -34.6753 C   0  0  0  0  0  0  0  0  0  0  0  0
  -23.0862   18.8942  -33.6511 C   0  0  0  0  0  0  0  0  0  0  0  0
  -22.4337   20.2601  -33.7241 C   0  0  0  0  0  0  0  0  0  0  0  0
  -24.5683   19.1159  -33.9133 C   0  0  0  0  0  0  0  0  0  0  0  0
  -22.9650   18.3027  -32.2639 C   0  0  0  0  0  0  0  0  0  0  0  0
  -23.2318   17.7671  -35.8290 C   0  0  0  0  0  0  0  0  0  0  0  0
  -24.4492   18.3975  -35.9958 O   0  0  0  0  0  0  0  0  0  0  0  0
  -22.7426   16.9244  -36.8208 C   0  0  0  0  0  0  0  0  0  0  0  0
  -23.5131   16.6924  -38.0576 C   0  0  0  0  0  0  0  0  0  0  0  0
  -23.7855   18.0172  -38.7344 C   0  0  0  0  0  0  0  0  0  0  0  0
  -24.8386   16.0721  -37.6700 C   0  0  0  0  0  0  0  0  0  0  0  0
  -22.7714   15.8170  -39.0461 C   0  0  0  0  0  0  0  0  0  0  0  0
  -21.5058   16.3083  -36.6066 C   0  0  0  0  0  0  0  0  0  0  0  0
  1  2  1  0
  2  3  1  0
  2  4  1  0
  4  5  1  0
  5  6  2  0
  6  7  1  0
  7  8  1  0
  8  9  1  0
  8 10  1  0
  8 11  1  0
  7 12  2  0
 12 13  1  0
 12 14  1  0
 14 15  1  0
 15 16  1  0
 15 17  1  0
 15 18  1  0
 14 19  2  0
  2 20  1  0
 20 21  1  0
 21 22  2  0
 22 23  1  0
 23 24  1  0
 24 25  1  0
 24 26  1  0
 24 27  1  0
 23 28  2  0
 28 29  1  0
 28 30  1  0
 30 31  1  0
 31 32  1  0
 31 33  1  0
 31 34  1  0
 30 35  2  0
 19  5  1  0
 35 21  1  0
M  END
$$$$
