
     RDKit          3D

 28 30  0  0  0  0  0  0  0  0999 V2000
    5.4251   26.2411  -16.7052 O   0  0  0  0  0  0  0  0  0  0  0  0
    5.1548   25.6118  -17.7483 C   0  0  0  0  0  0  0  0  0  0  0  0
    5.0719   26.3325  -18.9376 O   0  0  0  0  0  0  0  0  0  0  0  0
    4.9288   24.1735  -17.7484 C   0  0  0  0  0  0  0  0  0  0  0  0
    4.3923   23.5567  -16.6395 C   0  0  0  0  0  0  0  0  0  0  0  0
    4.1619   22.1800  -16.6018 C   0  0  0  0  0  0  0  0  0  0  0  0
    4.4657   21.3906  -17.6780 C   0  0  0  0  0  0  0  0  0  0  0  0
    4.2669   19.9437  -17.7356 C   0  0  0  0  0  0  0  0  0  0  0  0
    3.6264   19.3620  -18.7073 C   0  0  0  0  0  0  0  0  0  0  0  0
    3.2889   20.0619  -20.2999 S   0  0  0  0  0  0  0  0  0  0  0  0
    2.2828   18.7031  -20.9070 C   0  0  0  0  0  0  0  0  0  0  0  0
    1.4696   18.6550  -22.3299 S   0  0  0  0  0  0  0  0  0  0  0  0
    2.3496   17.7140  -19.8976 N   0  0  0  0  0  0  0  0  0  0  0  0
    1.6945   16.3970  -20.0842 C   0  0  0  0  0  0  0  0  0  0  0  0
    0.4781   16.2490  -19.2941 C   0  0  0  0  0  0  0  0  0  0  0  0
    0.5331   16.1682  -17.9181 C   0  0  0  0  0  0  0  0  0  0  0  0
   -0.5985   16.0319  -17.1435 C   0  0  0  0  0  0  0  0  0  0  0  0
   -1.8425   15.9726  -17.7549 C   0  0  0  0  0  0  0  0  0  0  0  0
   -1.9367   16.0501  -19.1229 C   0  0  0  0  0  0  0  0  0  0  0  0
   -3.2896   15.9843  -19.7301 C   0  0  0  0  0  0  0  0  0  0  0  0
   -3.7384   17.3114  -19.7955 F   0  0  0  0  0  0  0  0  0  0  0  0
   -4.1584   15.2053  -19.0306 F   0  0  0  0  0  0  0  0  0  0  0  0
   -3.1303   15.5942  -21.0503 F   0  0  0  0  0  0  0  0  0  0  0  0
   -0.7783   16.1863  -19.8626 C   0  0  0  0  0  0  0  0  0  0  0  0
    3.0460   18.0440  -18.7454 C   0  0  0  0  0  0  0  0  0  0  0  0
    3.1911   17.2490  -17.7419 O   0  0  0  0  0  0  0  0  0  0  0  0
    5.0036   22.0191  -18.7856 C   0  0  0  0  0  0  0  0  0  0  0  0
    5.2346   23.3794  -18.8320 C   0  0  0  0  0  0  0  0  0  0  0  0
  1  2  2  0
  2  3  1  0
  2  4  1  0
  4  5  2  0
  5  6  1  0
  6  7  2  0
  7  8  1  0
  8  9  2  0
  9 10  1  0
 10 11  1  0
 11 12  2  0
 11 13  1  0
 13 14  1  0
 14 15  1  0
 15 16  2  0
 16 17  1  0
 17 18  2  0
 18 19  1  0
 19 20  1  0
 20 21  1  0
 20 22  1  0
 20 23  1  0
 19 24  2  0
 13 25  1  0
 25 26  2  0
  7 27  1  0
 27 28  2  0
 28  4  1  0
 25  9  1  0
 24 15  1  0
M  END
$$$$
