
     RDKit          3D

 15 16  0  0  0  0  0  0  0  0999 V2000
  -18.5420   36.4328  -20.1918 O   0  0  0  0  0  0  0  0  0  0  0  0
  -18.5956   37.1195  -21.2415 C   0  0  0  0  0  0  0  0  0  0  0  0
  -19.0836   36.5202  -22.3885 O   0  0  0  0  0  0  0  0  0  0  0  0
  -18.1524   38.5247  -21.2561 C   0  0  0  0  0  0  0  0  0  0  0  0
  -17.6043   39.2452  -20.2405 C   0  0  0  0  0  0  0  0  0  0  0  0
  -17.3493   40.5343  -20.7374 C   0  0  0  0  0  0  0  0  0  0  0  0
  -17.7632   40.5151  -22.0375 C   0  0  0  0  0  0  0  0  0  0  0  0
  -17.7489   41.5534  -23.0470 C   0  0  0  0  0  0  0  0  0  0  0  0
  -17.6404   41.1792  -24.3976 C   0  0  0  0  0  0  0  0  0  0  0  0
  -17.6179   42.0791  -25.4260 C   0  0  0  0  0  0  0  0  0  0  0  0
  -17.7071   43.4176  -25.1037 C   0  0  0  0  0  0  0  0  0  0  0  0
  -17.8143   43.8572  -23.8232 C   0  0  0  0  0  0  0  0  0  0  0  0
  -17.8334   42.8983  -22.8018 C   0  0  0  0  0  0  0  0  0  0  0  0
  -17.9722   43.5137  -21.1779 Cl  0  0  0  0  0  0  0  0  0  0  0  0
  -18.2281   39.3014  -22.2864 O   0  0  0  0  0  0  0  0  0  0  0  0
  1  2  2  0
  2  3  1  0
  2  4  1  0
  4  5  2  0
  5  6  1  0
  6  7  2  0
  7  8  1  0
  8  9  2  0
  9 10  1  0
 10 11  2  0
 11 12  1  0
 12 13  2  0
 13 14  1  0
  7 15  1  0
 15  4  1  0
 13  8  1  0
M  END
$$$$
