
     RDKit          3D

 27 29  0  0  0  0  0  0  0  0999 V2000
  -20.0202   19.4665  -35.5478 C   0  0  0  0  0  0  0  0  0  0  0  0
  -20.4220   19.1745  -34.1263 C   0  0  0  0  0  0  0  0  0  0  0  0
  -21.6872   19.8871  -33.7286 C   0  0  0  0  0  0  0  0  0  0  0  0
  -20.4716   17.7140  -33.9098 C   0  0  0  0  0  0  0  0  0  0  0  0
  -19.6774   16.9886  -33.0603 C   0  0  0  0  0  0  0  0  0  0  0  0
  -18.6141   17.4184  -32.1952 N   0  0  0  0  0  0  0  0  0  0  0  0
  -17.6798   16.4608  -31.6932 C   0  0  0  0  0  0  0  0  0  0  0  0
  -17.7503   15.2329  -31.9490 O   0  0  0  0  0  0  0  0  0  0  0  0
  -16.5857   16.8690  -30.8491 N   0  0  0  0  0  0  0  0  0  0  0  0
  -15.5367   15.9546  -30.5545 C   0  0  0  0  0  0  0  0  0  0  0  0
  -15.7439   14.5935  -30.5647 C   0  0  0  0  0  0  0  0  0  0  0  0
  -14.6818   13.7706  -30.2696 C   0  0  0  0  0  0  0  0  0  0  0  0
  -13.4304   14.2675  -29.9676 C   0  0  0  0  0  0  0  0  0  0  0  0
  -12.0556   13.2885  -29.5884 Cl  0  0  0  0  0  0  0  0  0  0  0  0
  -13.2798   15.6418  -29.9722 C   0  0  0  0  0  0  0  0  0  0  0  0
  -14.3022   16.5002  -30.2583 C   0  0  0  0  0  0  0  0  0  0  0  0
  -20.1056   15.6808  -33.2012 C   0  0  0  0  0  0  0  0  0  0  0  0
  -19.6521   14.6718  -32.6048 O   0  0  0  0  0  0  0  0  0  0  0  0
  -21.1234   15.6069  -34.1030 N   0  0  0  0  0  0  0  0  0  0  0  0
  -21.7932   14.4163  -34.4834 C   0  0  0  0  0  0  0  0  0  0  0  0
  -23.1136   14.1995  -34.1799 C   0  0  0  0  0  0  0  0  0  0  0  0
  -23.7886   13.0454  -34.5406 C   0  0  0  0  0  0  0  0  0  0  0  0
  -23.0994   12.0578  -35.2434 C   0  0  0  0  0  0  0  0  0  0  0  0
  -21.7781   12.2606  -35.5541 C   0  0  0  0  0  0  0  0  0  0  0  0
  -21.1354   13.4225  -35.1795 C   0  0  0  0  0  0  0  0  0  0  0  0
  -21.3240   16.8366  -34.5130 N   0  0  0  0  0  0  0  0  0  0  0  0
  -22.3272   17.2211  -35.4875 C   0  0  0  0  0  0  0  0  0  0  0  0
  1  2  1  0
  2  3  1  0
  2  4  1  0
  4  5  2  0
  5  6  1  0
  6  7  1  0
  7  8  2  0
  7  9  1  0
  9 10  1  0
 10 11  2  0
 11 12  1  0
 12 13  2  0
 13 14  1  0
 13 15  1  0
 15 16  2  0
  5 17  1  0
 17 18  2  0
 17 19  1  0
 19 20  1  0
 20 21  2  0
 21 22  1  0
 22 23  2  0
 23 24  1  0
 24 25  2  0
 19 26  1  0
 26 27  1  0
 26  4  1  0
 16 10  1  0
 25 20  1  0
M  END
$$$$
