
     RDKit          3D

 30 32  0  0  0  0  0  0  0  0999 V2000
  -22.2952   14.8205  -20.7445 Cl  0  0  0  0  0  0  0  0  0  0  0  0
  -26.8918    8.8059  -26.7635 N   0  0  0  0  0  0  0  0  0  0  0  0
  -26.5149    9.7577  -26.1762 C   0  0  0  0  0  0  0  0  0  0  0  0
  -26.0736   10.9377  -25.4621 C   0  0  0  0  0  0  0  0  0  0  0  0
  -24.7759   10.9372  -25.0504 C   0  0  0  0  0  0  0  0  0  0  0  0
  -24.2912   12.0363  -24.3252 C   0  0  0  0  0  0  0  0  0  0  0  0
  -25.1027   13.0857  -24.0362 C   0  0  0  0  0  0  0  0  0  0  0  0
  -24.6516   14.2239  -23.2344 C   0  0  0  0  0  0  0  0  0  0  0  0
  -23.6137   15.0347  -23.7939 N   0  0  0  0  0  0  0  0  0  0  0  0
  -23.8249   15.9889  -24.7232 C   0  0  0  0  0  0  0  0  0  0  0  0
  -22.6234   16.5027  -25.0477 N   0  0  0  0  0  0  0  0  0  0  0  0
  -21.6950   15.8666  -24.3199 C   0  0  0  0  0  0  0  0  0  0  0  0
  -22.2905   14.9302  -23.5127 C   0  0  0  0  0  0  0  0  0  0  0  0
  -21.6830   14.0252  -22.5132 C   0  0  0  0  0  0  0  0  0  0  0  0
  -21.5886   14.6678  -21.2121 N   0  0  0  0  0  0  0  0  0  0  0  0
  -21.0915   13.7327  -20.2111 C   0  0  0  0  0  0  0  0  0  0  0  0
  -21.4205   14.3112  -18.8604 C   0  0  0  0  0  0  0  0  0  0  0  0
  -20.7169   15.5867  -18.7568 N   0  0  0  0  0  0  0  0  0  0  0  0
  -20.6903   16.3117  -17.5432 C   0  0  0  0  0  0  0  0  0  0  0  0
  -20.0896   17.5145  -17.4077 C   0  0  0  0  0  0  0  0  0  0  0  0
  -20.0743   18.1834  -16.1698 C   0  0  0  0  0  0  0  0  0  0  0  0
  -20.6728   17.6192  -15.0813 C   0  0  0  0  0  0  0  0  0  0  0  0
  -21.2978   16.3897  -15.1849 C   0  0  0  0  0  0  0  0  0  0  0  0
  -22.0681   15.6460  -13.8065 Cl  0  0  0  0  0  0  0  0  0  0  0  0
  -21.3005   15.7442  -16.4228 C   0  0  0  0  0  0  0  0  0  0  0  0
  -20.0637   16.0474  -19.9340 C   0  0  0  0  0  0  0  0  0  0  0  0
  -18.9310   16.5605  -19.8273 O   0  0  0  0  0  0  0  0  0  0  0  0
  -20.7950   15.8786  -21.2256 C   0  0  0  0  0  0  0  0  0  0  0  0
  -26.4498   13.0580  -24.4787 C   0  0  0  0  0  0  0  0  0  0  0  0
  -26.9184   11.9860  -25.1854 C   0  0  0  0  0  0  0  0  0  0  0  0
  2  3  3  0
  3  4  1  0
  4  5  2  0
  5  6  1  0
  6  7  2  0
  7  8  1  0
  8  9  1  0
  9 10  1  0
 10 11  2  0
 11 12  1  0
 12 13  2  0
 13 14  1  0
 14 15  1  0
 15 16  1  0
 16 17  1  0
 17 18  1  0
 18 19  1  0
 19 20  2  0
 20 21  1  0
 21 22  2  0
 22 23  1  0
 23 24  1  0
 23 25  2  0
 18 26  1  0
 26 27  2  0
 26 28  1  0
  7 29  1  0
 29 30  2  0
 30  4  1  0
 13  9  1  0
 28 15  1  0
 25 19  1  0
M  END
$$$$
