
     RDKit          3D

 43 48  0  0  0  0  0  0  0  0999 V2000
  -23.9030   16.4469  -41.1100 C   0  0  0  0  0  0  0  0  0  0  0  0
  -23.3957   17.0872  -39.8795 C   0  0  0  0  0  0  0  0  0  0  0  0
  -22.2455   17.8226  -39.7346 C   0  0  0  0  0  0  0  0  0  0  0  0
  -22.1449   18.2259  -38.4566 N   0  0  0  0  0  0  0  0  0  0  0  0
  -21.0751   19.0161  -37.8839 C   0  0  0  0  0  0  0  0  0  0  0  0
  -21.2350   20.4791  -38.1852 C   0  0  0  0  0  0  0  0  0  0  0  0
  -21.5069   21.1770  -36.9613 N   0  0  0  0  0  0  0  0  0  0  0  0
  -22.3428   20.4492  -36.0555 C   0  0  0  0  0  0  0  0  0  0  0  0
  -22.7689   21.2893  -34.8623 C   0  0  0  0  0  0  0  0  0  0  0  0
  -21.9078   22.4385  -34.7087 N   0  0  0  0  0  0  0  0  0  0  0  0
  -22.4364   23.6744  -34.3050 C   0  0  0  0  0  0  0  0  0  0  0  0
  -22.1231   24.7852  -35.0826 C   0  0  0  0  0  0  0  0  0  0  0  0
  -22.6252   26.0350  -34.7989 C   0  0  0  0  0  0  0  0  0  0  0  0
  -23.4587   26.1948  -33.7201 C   0  0  0  0  0  0  0  0  0  0  0  0
  -23.7701   25.1034  -32.9509 C   0  0  0  0  0  0  0  0  0  0  0  0
  -23.2592   23.8289  -33.2363 C   0  0  0  0  0  0  0  0  0  0  0  0
  -23.5698   22.7138  -32.3755 C   0  0  0  0  0  0  0  0  0  0  0  0
  -22.6573   21.6637  -32.2995 C   0  0  0  0  0  0  0  0  0  0  0  0
  -22.8401   20.5595  -31.5118 C   0  0  0  0  0  0  0  0  0  0  0  0
  -21.8814   19.5073  -31.4637 C   0  0  0  0  0  0  0  0  0  0  0  0
  -21.1135   18.6358  -31.4304 N   0  0  0  0  0  0  0  0  0  0  0  0
  -23.9946   20.4897  -30.7551 C   0  0  0  0  0  0  0  0  0  0  0  0
  -24.9450   21.5167  -30.7942 C   0  0  0  0  0  0  0  0  0  0  0  0
  -26.1280   21.3976  -29.9614 C   0  0  0  0  0  0  0  0  0  0  0  0
  -26.5381   22.3971  -29.2813 O   0  0  0  0  0  0  0  0  0  0  0  0
  -26.9046   20.2132  -29.8293 N   0  0  0  0  0  0  0  0  0  0  0  0
  -27.2627   19.6048  -28.5658 C   0  0  0  0  0  0  0  0  0  0  0  0
  -27.1590   18.1258  -28.6891 C   0  0  0  0  0  0  0  0  0  0  0  0
  -28.1524   17.3604  -27.8290 C   0  0  0  0  0  0  0  0  0  0  0  0
  -27.3603   16.3776  -27.1109 N   0  0  0  0  0  0  0  0  0  0  0  0
  -28.1928   15.2869  -26.6347 C   0  0  0  0  0  0  0  0  0  0  0  0
  -27.4823   14.0058  -26.9322 C   0  0  0  0  0  0  0  0  0  0  0  0
  -26.0629   14.4539  -27.2090 C   0  0  0  0  0  0  0  0  0  0  0  0
  -26.2905   15.8065  -27.8590 C   0  0  0  0  0  0  0  0  0  0  0  0
  -24.7013   22.5917  -31.6023 C   0  0  0  0  0  0  0  0  0  0  0  0
  -20.5080   22.2870  -34.9842 C   0  0  0  0  0  0  0  0  0  0  0  0
  -20.3831   21.8468  -36.4118 C   0  0  0  0  0  0  0  0  0  0  0  0
  -23.2187   17.7552  -37.7897 C   0  0  0  0  0  0  0  0  0  0  0  0
  -23.5726   17.8999  -36.4605 C   0  0  0  0  0  0  0  0  0  0  0  0
  -24.7419   17.3171  -36.0064 C   0  0  0  0  0  0  0  0  0  0  0  0
  -25.5296   16.6037  -36.8876 C   0  0  0  0  0  0  0  0  0  0  0  0
  -25.2034   16.4429  -38.2129 C   0  0  0  0  0  0  0  0  0  0  0  0
  -24.0340   17.0332  -38.6422 C   0  0  0  0  0  0  0  0  0  0  0  0
  1  2  1  0
  2  3  2  0
  3  4  1  0
  4  5  1  0
  5  6  1  0
  6  7  1  0
  7  8  1  0
  8  9  1  0
  9 10  1  0
 10 11  1  0
 11 12  2  0
 12 13  1  0
 13 14  2  0
 14 15  1  0
 15 16  2  0
 16 17  1  0
 17 18  2  0
 18 19  1  0
 19 20  1  0
 20 21  3  0
 19 22  2  0
 22 23  1  0
 23 24  1  0
 24 25  2  0
 24 26  1  0
 26 27  1  0
 27 28  1  0
 28 29  1  0
 29 30  1  0
 30 31  1  0
 31 32  1  0
 32 33  1  0
 33 34  1  0
 23 35  2  0
 10 36  1  0
 36 37  1  0
  4 38  1  0
 38 39  2  0
 39 40  1  0
 40 41  2  0
 41 42  1  0
 42 43  2  0
 43  2  1  0
 37  7  1  0
 43 38  1  0
 16 11  1  0
 35 17  1  0
 34 30  1  0
M  END
$$$$
