
     RDKit          3D

 27 29  0  0  0  0  0  0  0  0999 V2000
  -21.5096   18.5867  -38.8254 C   0  0  0  0  0  0  0  0  0  0  0  0
  -20.2234   19.1333  -38.2835 C   0  0  0  0  0  0  0  0  0  0  0  0
  -19.5757   19.9811  -39.3744 C   0  0  0  0  0  0  0  0  0  0  0  0
  -19.3680   18.0986  -37.8786 O   0  0  0  0  0  0  0  0  0  0  0  0
  -18.2636   18.3479  -37.0527 C   0  0  0  0  0  0  0  0  0  0  0  0
  -18.3243   18.4001  -35.6659 C   0  0  0  0  0  0  0  0  0  0  0  0
  -17.0333   18.6594  -35.2366 C   0  0  0  0  0  0  0  0  0  0  0  0
  -16.6001   18.7802  -33.9169 N   0  0  0  0  0  0  0  0  0  0  0  0
  -16.8764   17.8730  -32.8677 C   0  0  0  0  0  0  0  0  0  0  0  0
  -17.8089   16.8883  -33.0655 N   0  0  0  0  0  0  0  0  0  0  0  0
  -18.1202   15.9592  -32.1618 C   0  0  0  0  0  0  0  0  0  0  0  0
  -19.1108   14.9633  -32.3825 N   0  0  0  0  0  0  0  0  0  0  0  0
  -19.7247   14.8997  -33.6794 C   0  0  1  0  0  0  0  0  0  0  0  0
  -20.2662   13.4709  -33.8445 C   0  0  0  0  0  0  0  0  0  0  0  0
  -20.8259   15.8738  -33.8403 C   0  0  0  0  0  0  0  0  0  0  0  0
  -21.6312   16.2733  -32.7908 C   0  0  0  0  0  0  0  0  0  0  0  0
  -22.6332   17.2109  -33.0650 C   0  0  0  0  0  0  0  0  0  0  0  0
  -22.8079   17.7138  -34.3279 C   0  0  0  0  0  0  0  0  0  0  0  0
  -23.7893   18.6308  -34.5955 F   0  0  0  0  0  0  0  0  0  0  0  0
  -21.9858   17.2931  -35.3501 C   0  0  0  0  0  0  0  0  0  0  0  0
  -21.0381   16.3962  -35.0591 N   0  0  0  0  0  0  0  0  0  0  0  0
  -17.4662   16.0055  -30.9841 N   0  0  0  0  0  0  0  0  0  0  0  0
  -16.5408   16.9381  -30.7119 C   0  0  0  0  0  0  0  0  0  0  0  0
  -16.2175   17.9159  -31.6680 C   0  0  0  0  0  0  0  0  0  0  0  0
  -15.0366   19.1366  -31.2778 Cl  0  0  0  0  0  0  0  0  0  0  0  0
  -16.2741   18.7516  -36.3367 N   0  0  0  0  0  0  0  0  0  0  0  0
  -17.0049   18.5665  -37.4321 N   0  0  0  0  0  0  0  0  0  0  0  0
  1  2  1  0
  2  3  1  0
  2  4  1  0
  4  5  1  0
  5  6  2  0
  6  7  1  0
  7  8  1  0
  8  9  1  0
  9 10  2  0
 10 11  1  0
 11 12  1  0
 12 13  1  0
 13 14  1  1
 13 15  1  0
 15 16  2  0
 16 17  1  0
 17 18  2  0
 18 19  1  0
 18 20  1  0
 20 21  2  0
 11 22  2  0
 22 23  1  0
 23 24  2  0
 24 25  1  0
  7 26  2  0
 26 27  1  0
 27  5  1  0
 24  9  1  0
 21 15  1  0
M  END
$$$$
