
     RDKit          3D

 16 16  0  0  0  0  0  0  0  0999 V2000
    4.1694   20.5333  -19.5942 C   0  0  0  0  0  0  0  0  0  0  0  0
    2.9411   19.7325  -19.9203 C   0  0  0  0  0  0  0  0  0  0  0  0
    2.4257   19.6981  -21.1863 C   0  0  0  0  0  0  0  0  0  0  0  0
    1.3012   18.9669  -21.4941 C   0  0  0  0  0  0  0  0  0  0  0  0
    0.6545   18.2389  -20.5200 C   0  0  0  0  0  0  0  0  0  0  0  0
   -0.5061   17.4798  -20.8212 N   0  0  0  0  0  4  0  0  0  0  0  0
   -1.1270   17.5964  -21.8730 O   0  0  0  0  0  0  0  0  0  0  0  0
   -0.9621   16.5715  -19.9005 O   0  0  0  0  0  1  0  0  0  0  0  0
    1.1871   18.2813  -19.2370 C   0  0  0  0  0  0  0  0  0  0  0  0
    2.3152   19.0124  -18.9210 C   0  0  0  0  0  0  0  0  0  0  0  0
    2.9689   19.0698  -17.2959 S   0  0  0  0  0  6  0  0  0  0  0  0
    3.4176   20.5048  -17.0658 O   0  0  0  0  0  0  0  0  0  0  0  0
    1.8676   18.7996  -16.3084 O   0  0  0  0  0  0  0  0  0  0  0  0
    4.2515   17.9775  -17.1748 N   0  0  0  0  0  0  0  0  0  0  0  0
    5.0899   17.8463  -18.3121 C   0  0  0  0  0  0  0  0  0  0  0  0
    3.9881   16.8028  -16.4299 C   0  0  0  0  0  0  0  0  0  0  0  0
  1  2  1  0
  2  3  2  0
  3  4  1  0
  4  5  2  0
  5  6  1  0
  6  7  2  0
  6  8  1  0
  5  9  1  0
  9 10  2  0
 10 11  1  0
 11 12  2  0
 11 13  2  0
 11 14  1  0
 14 15  1  0
 14 16  1  0
 10  2  1  0
M  CHG  2   6   1   8  -1
M  END
$$$$
