
     RDKit          3D

 13 13  0  0  0  0  0  0  0  0999 V2000
  -16.5423   32.6155  -26.3683 N   0  0  0  0  0  0  0  0  0  0  0  0
  -17.2259   33.4858  -25.4441 C   0  0  0  0  0  0  0  0  0  0  0  0
  -17.0629   33.0480  -24.0058 C   0  0  0  0  0  0  0  0  0  0  0  0
  -17.6455   34.0473  -23.1401 N   0  0  0  0  0  0  0  0  0  0  0  0
  -16.9608   35.2596  -22.8455 C   0  0  0  0  0  0  0  0  0  0  0  0
  -15.8080   35.4675  -23.2964 O   0  0  0  0  0  0  0  0  0  0  0  0
  -17.5866   36.2837  -22.0134 C   0  0  0  0  0  0  0  0  0  0  0  0
  -18.9025   36.1719  -21.6231 C   0  0  0  0  0  0  0  0  0  0  0  0
  -19.5302   37.1050  -20.8449 C   0  0  0  0  0  0  0  0  0  0  0  0
  -18.8062   38.2217  -20.4265 C   0  0  0  0  0  0  0  0  0  0  0  0
  -19.5700   39.4207  -19.4415 Cl  0  0  0  0  0  0  0  0  0  0  0  0
  -17.5025   38.3168  -20.8226 C   0  0  0  0  0  0  0  0  0  0  0  0
  -16.9143   37.3682  -21.5963 N   0  0  0  0  0  0  0  0  0  0  0  0
  1  2  1  0
  2  3  1  0
  3  4  1  0
  4  5  1  0
  5  6  2  0
  5  7  1  0
  7  8  2  0
  8  9  1  0
  9 10  2  0
 10 11  1  0
 10 12  1  0
 12 13  2  0
 13  7  1  0
M  END
$$$$
