
     RDKit          3D

  5  3  0  0  0  0  0  0  0  0999 V2000
  -16.1447   36.5091  -22.0505 O   0  0  0  0  0  0  0  0  0  0  0  0
  -16.7048   37.6339  -22.0641 C   0  0  0  0  0  0  0  0  0  0  0  0
  -16.3076   38.6816  -22.8838 O   0  0  0  0  0  1  0  0  0  0  0  0
  -17.7837   37.7906  -21.1868 O   0  0  0  0  0  0  0  0  0  0  0  0
  -17.0641   37.5175  -21.8436 Na  0  0  0  0  0 15  0  0  0  0  0  0
  1  2  2  0
  2  3  1  0
  2  4  1  0
M  CHG  2   3  -1   5   1
M  END
$$$$
