
     RDKit          3D

 20 21  0  0  0  0  0  0  0  0999 V2000
  -21.9131   17.4642  -34.3787 C   0  0  0  0  0  0  0  0  0  0  0  0
  -20.8809   16.7628  -33.6467 N   0  0  0  0  0  0  0  0  0  0  0  0
  -19.5757   17.2648  -33.6659 C   0  0  0  0  0  0  0  0  0  0  0  0
  -19.3283   18.3121  -34.3133 O   0  0  0  0  0  0  0  0  0  0  0  0
  -18.5042   16.5780  -32.9386 C   0  0  0  0  0  0  0  0  0  0  0  0
  -18.6967   15.3336  -32.4088 C   0  0  0  0  0  0  0  0  0  0  0  0
  -17.6598   14.6947  -31.7174 C   0  0  0  0  0  0  0  0  0  0  0  0
  -16.4357   15.3003  -31.5578 C   0  0  0  0  0  0  0  0  0  0  0  0
  -15.3368   14.6767  -30.8509 C   0  0  0  0  0  0  0  0  0  0  0  0
  -14.1256   14.3590  -31.4570 C   0  0  0  0  0  0  0  0  0  0  0  0
  -13.0905   13.7723  -30.7936 C   0  0  0  0  0  0  0  0  0  0  0  0
  -11.5601   13.3665  -31.5434 Cl  0  0  0  0  0  0  0  0  0  0  0  0
  -13.2440   13.4768  -29.4583 C   0  0  0  0  0  0  0  0  0  0  0  0
  -14.4288   13.7728  -28.8097 C   0  0  0  0  0  0  0  0  0  0  0  0
  -14.6806   13.4202  -27.1139 Cl  0  0  0  0  0  0  0  0  0  0  0  0
  -15.4444   14.3614  -29.5091 C   0  0  0  0  0  0  0  0  0  0  0  0
  -16.9457   14.7425  -28.7099 Cl  0  0  0  0  0  0  0  0  0  0  0  0
  -16.2783   16.5527  -32.1043 C   0  0  0  0  0  0  0  0  0  0  0  0
  -15.0260   17.2168  -31.9625 N   0  0  0  0  0  0  0  0  0  0  0  0
  -17.3026   17.1603  -32.7760 N   0  0  0  0  0  0  0  0  0  0  0  0
  1  2  1  0
  2  3  1  0
  3  4  2  0
  3  5  1  0
  5  6  2  0
  6  7  1  0
  7  8  2  0
  8  9  1  0
  9 10  2  0
 10 11  1  0
 11 12  1  0
 11 13  2  0
 13 14  1  0
 14 15  1  0
 14 16  2  0
 16 17  1  0
  8 18  1  0
 18 19  1  0
 18 20  2  0
 20  5  1  0
 16  9  1  0
M  END
$$$$
