
     RDKit          3D

 12 13  0  0  0  0  0  0  0  0999 V2000
  -17.7513   36.3817  -21.6237 C   0  0  0  0  0  0  0  0  0  0  0  0
  -17.0863   37.5688  -21.9070 C   0  0  0  0  0  0  0  0  0  0  0  0
  -17.4866   38.3341  -22.9791 C   0  0  0  0  0  0  0  0  0  0  0  0
  -18.5339   37.9112  -23.7477 C   0  0  0  0  0  0  0  0  0  0  0  0
  -19.0249   38.6925  -24.9306 C   0  0  0  0  0  0  0  0  0  0  0  0
  -19.3558   40.0486  -24.5684 N   0  0  0  0  0  0  0  0  0  0  0  0
  -20.5262   40.4564  -24.0516 C   0  0  0  0  0  0  0  0  0  0  0  0
  -20.3920   41.8165  -23.8660 C   0  0  0  0  0  0  0  0  0  0  0  0
  -19.1645   42.1894  -24.2686 N   0  0  0  0  0  0  0  0  0  0  0  0
  -18.5269   41.0947  -24.7020 C   0  0  0  0  0  0  0  0  0  0  0  0
  -19.1921   36.7301  -23.4621 C   0  0  0  0  0  0  0  0  0  0  0  0
  -18.8124   35.9398  -22.3911 C   0  0  0  0  0  0  0  0  0  0  0  0
  1  2  2  0
  2  3  1  0
  3  4  2  0
  4  5  1  0
  5  6  1  0
  6  7  1  0
  7  8  2  0
  8  9  1  0
  9 10  2  0
  4 11  1  0
 11 12  2  0
 12  1  1  0
 10  6  1  0
M  END
$$$$
