
     RDKit          3D

 30 33  0  0  0  0  0  0  0  0999 V2000
  -23.7304   16.7086  -30.9928 C   0  0  0  0  0  0  0  0  0  0  0  0
  -24.6878   15.8347  -30.4287 O   0  0  0  0  0  0  0  0  0  0  0  0
  -25.5678   16.2252  -29.4475 C   0  0  0  0  0  0  0  0  0  0  0  0
  -25.8113   17.5632  -29.2866 C   0  0  0  0  0  0  0  0  0  0  0  0
  -26.6883   18.0454  -28.3172 C   0  0  0  0  0  0  0  0  0  0  0  0
  -26.8679   19.4563  -28.2367 C   0  0  0  0  0  0  0  0  0  0  0  0
  -26.3830   20.2811  -29.0402 N   0  0  0  0  0  0  0  0  0  0  0  0
  -27.0005   21.2025  -29.8310 N   0  0  0  0  0  0  0  0  0  0  0  0
  -26.3060   21.9492  -30.8442 C   0  0  0  0  0  0  0  0  0  0  0  0
  -25.2011   21.4609  -31.2106 O   0  0  0  0  0  0  0  0  0  0  0  0
  -26.7693   23.1744  -31.4486 C   0  0  0  0  0  0  0  0  0  0  0  0
  -26.0625   23.8237  -32.4223 C   0  0  0  0  0  0  0  0  0  0  0  0
  -26.5041   24.9893  -32.9972 C   0  0  0  0  0  0  0  0  0  0  0  0
  -27.6753   25.5459  -32.6132 C   0  0  0  0  0  0  0  0  0  0  0  0
  -28.4282   24.9250  -31.6292 C   0  0  0  0  0  0  0  0  0  0  0  0
  -27.9804   23.7554  -31.0555 C   0  0  0  0  0  0  0  0  0  0  0  0
  -29.5515   25.7299  -31.4650 O   0  0  0  0  0  0  0  0  0  0  0  0
  -29.2814   27.0151  -32.0303 C   0  0  0  0  0  0  0  0  0  0  0  0
  -28.3301   26.7111  -33.0416 O   0  0  0  0  0  0  0  0  0  0  0  0
  -27.2882   17.1177  -27.5410 C   0  0  0  0  0  0  0  0  0  0  0  0
  -27.0415   15.7407  -27.7021 C   0  0  0  0  0  0  0  0  0  0  0  0
  -26.1839   15.2929  -28.6523 C   0  0  0  0  0  0  0  0  0  0  0  0
  -25.9016   13.9400  -28.8567 O   0  0  0  0  0  0  0  0  0  0  0  0
  -26.9446   12.9768  -28.8156 C   0  0  0  0  0  0  0  0  0  0  0  0
  -26.4746   11.7436  -29.4897 C   0  0  0  0  0  0  0  0  0  0  0  0
  -25.4879   10.9526  -28.9425 C   0  0  0  0  0  0  0  0  0  0  0  0
  -25.1041    9.8306  -29.6187 C   0  0  0  0  0  0  0  0  0  0  0  0
  -25.6612    9.4525  -30.8276 C   0  0  0  0  0  0  0  0  0  0  0  0
  -26.6388   10.2530  -31.3512 C   0  0  0  0  0  0  0  0  0  0  0  0
  -27.0589   11.3914  -30.7092 C   0  0  0  0  0  0  0  0  0  0  0  0
  1  2  1  0
  2  3  1  0
  3  4  2  0
  4  5  1  0
  5  6  1  0
  6  7  2  0
  7  8  1  0
  8  9  1  0
  9 10  2  0
  9 11  1  0
 11 12  2  0
 12 13  1  0
 13 14  2  0
 14 15  1  0
 15 16  2  0
 15 17  1  0
 17 18  1  0
 18 19  1  0
  5 20  2  0
 20 21  1  0
 21 22  2  0
 22 23  1  0
 23 24  1  0
 24 25  1  0
 25 26  2  0
 26 27  1  0
 27 28  2  0
 28 29  1  0
 29 30  2  0
 22  3  1  0
 30 25  1  0
 16 11  1  0
 19 14  1  0
M  END
$$$$
