
     RDKit          3D

 38 44  0  0  0  0  0  0  0  0999 V2000
    8.5105    9.4714  -36.7390 N   0  0  0  0  0  0  0  0  0  0  0  0
    7.1662    9.2794  -37.1833 C   0  0  0  0  0  0  0  0  0  0  0  0
    6.8250    8.5322  -38.2653 N   0  0  0  0  0  0  0  0  0  0  0  0
    5.5098    8.5134  -38.4655 C   0  0  0  0  0  0  0  0  0  0  0  0
    4.7126    7.8784  -39.4534 N   0  0  0  0  0  0  0  0  0  0  0  0
    3.3219    7.7209  -39.3456 C   0  0  0  0  0  0  0  0  0  0  0  0
    2.6256    7.8639  -38.1911 C   0  0  0  0  0  0  0  0  0  0  0  0
    1.2325    7.6920  -38.1361 C   0  0  0  0  0  0  0  0  0  0  0  0
    0.5414    7.3719  -39.2650 C   0  0  0  0  0  0  0  0  0  0  0  0
    1.2199    7.2219  -40.4429 C   0  0  0  0  0  0  0  0  0  0  0  0
    2.5722    7.3903  -40.4888 C   0  0  0  0  0  0  0  0  0  0  0  0
    0.6754    6.8786  -41.7784 C   0  0  0  0  0  0  0  0  0  0  0  0
   -0.7298    6.2799  -41.6098 C   0  0  0  0  0  0  0  0  0  0  0  0
   -1.7489    7.3788  -41.4136 C   0  0  1  0  0  0  0  0  0  0  0  0
   -3.0416    6.9042  -41.8303 N   0  0  0  0  0  0  0  0  0  0  0  0
   -3.9458    6.6891  -40.7286 C   0  0  0  0  0  0  0  0  0  0  0  0
   -4.5449    5.3171  -40.8903 C   0  0  0  0  0  0  0  0  0  0  0  0
   -3.5765    4.5912  -41.8048 C   0  0  0  0  0  0  0  0  0  0  0  0
   -3.0392    5.7352  -42.6376 C   0  0  0  0  0  0  0  0  0  0  0  0
   -1.7313    8.0051  -40.0690 C   0  0  0  0  0  0  0  0  0  0  0  0
   -0.9273    7.2198  -39.0638 C   0  0  0  0  0  0  0  0  0  0  0  0
    5.0126    9.2941  -37.4481 N   0  0  0  0  0  0  0  0  0  0  0  0
    6.0252    9.7374  -36.6989 N   0  0  0  0  0  0  0  0  0  0  0  0
    5.8332   10.5777  -35.5591 C   0  0  0  0  0  0  0  0  0  0  0  0
    6.6032   10.4557  -34.4414 C   0  0  0  0  0  0  0  0  0  0  0  0
    6.3720   11.3107  -33.3435 C   0  0  0  0  0  0  0  0  0  0  0  0
    5.3634   12.2424  -33.4556 C   0  0  0  0  0  0  0  0  0  0  0  0
    4.6187   12.3418  -34.5692 N   0  0  0  0  0  0  0  0  0  0  0  0
    4.8692   11.5264  -35.5643 N   0  0  0  0  0  0  0  0  0  0  0  0
    4.9801   13.2066  -32.4297 C   0  0  0  0  0  0  0  0  0  0  0  0
    3.7650   13.7818  -32.7147 C   0  0  0  0  0  0  0  0  0  0  0  0
    3.2323   14.7335  -31.8425 C   0  0  0  0  0  0  0  0  0  0  0  0
    3.9058   15.1036  -30.7028 C   0  0  0  0  0  0  0  0  0  0  0  0
    5.1224   14.5093  -30.4437 C   0  0  0  0  0  0  0  0  0  0  0  0
    5.6558   13.5672  -31.3015 C   0  0  0  0  0  0  0  0  0  0  0  0
    6.9770   13.0319  -30.8629 C   0  0  0  0  0  0  0  0  0  0  0  0
    6.8719   11.5146  -30.9246 C   0  0  0  0  0  0  0  0  0  0  0  0
    7.3223   10.9899  -32.2620 C   0  0  0  0  0  0  0  0  0  0  0  0
  1  2  1  0
  2  3  2  0
  3  4  1  0
  4  5  1  0
  5  6  1  0
  6  7  2  0
  7  8  1  0
  8  9  2  0
  9 10  1  0
 10 11  2  0
 10 12  1  0
 12 13  1  0
 13 14  1  0
 14 15  1  1
 15 16  1  0
 16 17  1  0
 17 18  1  0
 18 19  1  0
 14 20  1  0
 20 21  1  0
  4 22  2  0
 22 23  1  0
 23 24  1  0
 24 25  2  0
 25 26  1  0
 26 27  2  0
 27 28  1  0
 28 29  2  0
 27 30  1  0
 30 31  2  0
 31 32  1  0
 32 33  2  0
 33 34  1  0
 34 35  2  0
 35 36  1  0
 36 37  1  0
 37 38  1  0
 23  2  1  0
 29 24  1  0
 35 30  1  0
 11  6  1  0
 19 15  1  0
 38 26  1  0
 21  9  1  0
M  END
$$$$
