
     RDKit          3D

  5  3  0  0  0  0  0  0  0  0999 V2000
  -17.1309   15.1478  -31.3722 C   0  0  0  0  0  0  0  0  0  0  0  0
  -16.9067   16.4278  -32.0595 N   0  0  0  0  0  0  0  0  0  0  0  0
  -17.8769   16.4878  -33.1269 C   0  0  0  0  0  0  0  0  0  0  0  0
  -17.0498   17.4765  -31.0956 C   0  0  0  0  0  0  0  0  0  0  0  0
  -17.4796   15.6848  -31.6989 Cl  0  0  0  0  0  0  0  0  0  0  0  0
  1  2  1  0
  2  3  1  0
  2  4  1  0
M  END
$$$$
