
     RDKit          3D

 40 41  0  0  0  0  0  0  0  0999 V2000
  -15.1886   17.7029  -43.7578 C   0  0  0  0  0  0  0  0  0  0  0  0
  -13.7859   17.7858  -44.3242 C   0  0  0  0  0  0  0  0  0  0  0  0
  -13.6346   16.8639  -45.5261 C   0  0  0  0  0  0  0  0  0  0  0  0
  -13.5386   19.1943  -44.7453 C   0  0  0  0  0  0  0  0  0  0  0  0
  -13.8533   20.1882  -43.6612 C   0  0  2  0  0  0  0  0  0  0  0  0
  -15.3133   20.3941  -43.7177 N   0  0  0  0  0  0  0  0  0  0  0  0
  -15.9863   21.1487  -42.7209 C   0  0  0  0  0  0  0  0  0  0  0  0
  -15.3589   21.6448  -41.7459 O   0  0  0  0  0  0  0  0  0  0  0  0
  -17.4492   21.3293  -42.8714 C   0  0  2  0  0  0  0  0  0  0  0  0
  -17.7588   22.5916  -43.6738 C   0  0  0  0  0  0  0  0  0  0  0  0
  -18.6985   23.3888  -42.8491 C   0  0  0  0  0  0  0  0  0  0  0  0
  -20.0684   23.1951  -42.9155 C   0  0  0  0  0  0  0  0  0  0  0  0
  -20.9438   23.9359  -42.1489 C   0  0  0  0  0  0  0  0  0  0  0  0
  -20.4886   24.9034  -41.2818 C   0  0  0  0  0  0  0  0  0  0  0  0
  -19.1240   25.1123  -41.2007 C   0  0  0  0  0  0  0  0  0  0  0  0
  -18.2470   24.3573  -41.9807 C   0  0  0  0  0  0  0  0  0  0  0  0
  -18.1294   21.4094  -41.5857 N   0  0  0  0  0  0  0  0  0  0  0  0
  -18.5297   20.2464  -40.9161 C   0  0  0  0  0  0  0  0  0  0  0  0
  -18.2362   19.1263  -41.4537 O   0  0  0  0  0  0  0  0  0  0  0  0
  -19.2534   20.2185  -39.6570 C   0  0  0  0  0  0  0  0  0  0  0  0
  -19.1897   18.9578  -38.9607 N   0  0  0  0  0  0  0  0  0  0  0  0
  -18.5042   18.8654  -37.6999 C   0  0  0  0  0  0  0  0  0  0  0  0
  -17.9918   19.9039  -37.2366 O   0  0  0  0  0  0  0  0  0  0  0  0
  -18.4492   17.5424  -37.0299 C   0  0  0  0  0  0  0  0  0  0  0  0
  -17.8288   17.7093  -35.7522 N   0  0  0  0  0  0  0  0  0  0  0  0
  -16.5192   18.2309  -35.6682 C   0  0  0  0  0  0  0  0  0  0  0  0
  -15.7812   18.2890  -36.6756 O   0  0  0  0  0  0  0  0  0  0  0  0
  -16.0170   18.7156  -34.3631 C   0  0  1  0  0  0  0  0  0  0  0  0
  -16.9806   18.4131  -33.3217 N   0  0  0  0  0  0  0  0  0  0  0  0
  -14.6804   18.0452  -34.0735 C   0  0  0  0  0  0  0  0  0  0  0  0
  -14.9604   16.8715  -33.2192 C   0  0  0  0  0  0  0  0  0  0  0  0
  -15.4819   15.7256  -33.7735 C   0  0  0  0  0  0  0  0  0  0  0  0
  -15.7283   14.6595  -32.9510 C   0  0  0  0  0  0  0  0  0  0  0  0
  -15.4725   14.6945  -31.5901 C   0  0  0  0  0  0  0  0  0  0  0  0
  -15.7375   13.5889  -30.7904 O   0  0  0  0  0  0  0  0  0  0  0  0
  -14.9522   15.8380  -31.0382 C   0  0  0  0  0  0  0  0  0  0  0  0
  -14.7058   16.9078  -31.8679 C   0  0  0  0  0  0  0  0  0  0  0  0
  -13.2073   21.5090  -43.8546 C   0  0  0  0  0  0  0  0  0  0  0  0
  -12.1278   21.7936  -43.2932 O   0  0  0  0  0  0  0  0  0  0  0  0
  -13.7786   22.4779  -44.6664 O   0  0  0  0  0  0  0  0  0  0  0  0
  1  2  1  0
  2  3  1  0
  2  4  1  0
  5  4  1  6
  5  6  1  0
  6  7  1  0
  7  8  2  0
  7  9  1  0
  9 10  1  1
 10 11  1  0
 11 12  2  0
 12 13  1  0
 13 14  2  0
 14 15  1  0
 15 16  2  0
  9 17  1  0
 17 18  1  0
 18 19  2  0
 18 20  1  0
 20 21  1  0
 21 22  1  0
 22 23  2  0
 22 24  1  0
 24 25  1  0
 25 26  1  0
 26 27  2  0
 26 28  1  0
 28 29  1  1
 28 30  1  0
 30 31  1  0
 31 32  2  0
 32 33  1  0
 33 34  2  0
 34 35  1  0
 34 36  1  0
 36 37  2  0
  5 38  1  0
 38 39  2  0
 38 40  1  0
 16 11  1  0
 37 31  1  0
M  END
$$$$
