
     RDKit          3D

 28 31  0  0  0  0  0  0  0  0999 V2000
  -13.1311   44.5374  -19.3546 C   0  0  0  0  0  0  0  0  0  0  0  0
  -14.2021   45.3171  -19.8232 O   0  0  0  0  0  0  0  0  0  0  0  0
  -15.2508   44.6988  -20.5147 C   0  0  0  0  0  0  0  0  0  0  0  0
  -15.1725   43.3457  -20.7645 C   0  0  0  0  0  0  0  0  0  0  0  0
  -16.1469   42.6501  -21.4347 C   0  0  0  0  0  0  0  0  0  0  0  0
  -16.0939   41.2622  -21.7121 N   0  0  0  0  0  0  0  0  0  0  0  0
  -16.3167   40.0915  -20.4960 S   0  0  0  0  0  6  0  0  0  0  0  0
  -17.2468   40.6497  -19.1104 C   0  0  0  0  0  0  0  0  0  0  0  0
  -14.9769   39.5516  -20.0017 O   0  0  0  0  0  0  0  0  0  0  0  0
  -17.0282   38.8992  -21.1320 O   0  0  0  0  0  0  0  0  0  0  0  0
  -17.2516   43.4041  -21.8624 C   0  0  0  0  0  0  0  0  0  0  0  0
  -17.3250   44.7442  -21.6126 C   0  0  0  0  0  0  0  0  0  0  0  0
  -16.3342   45.4547  -20.9300 C   0  0  0  0  0  0  0  0  0  0  0  0
  -16.4850   46.8381  -20.7241 N   0  0  0  0  0  0  0  0  0  0  0  0
  -17.6674   47.6031  -20.6625 C   0  0  0  0  0  0  0  0  0  0  0  0
  -18.7018   47.3025  -19.8015 C   0  0  0  0  0  0  0  0  0  0  0  0
  -18.6633   46.2303  -18.9366 C   0  0  0  0  0  0  0  0  0  0  0  0
  -19.6955   45.9338  -18.0733 C   0  0  0  0  0  0  0  0  0  0  0  0
  -20.8312   46.7226  -18.0465 C   0  0  0  0  0  0  0  0  0  0  0  0
  -20.8802   47.7976  -18.9069 C   0  0  0  0  0  0  0  0  0  0  0  0
  -19.8373   48.0930  -19.7757 C   0  0  0  0  0  0  0  0  0  0  0  0
  -19.9014   49.1484  -20.6015 N   0  0  0  0  0  0  0  0  0  0  0  0
  -18.8883   49.4547  -21.4521 C   0  0  0  0  0  0  0  0  0  0  0  0
  -18.9922   50.5569  -22.2709 C   0  0  0  0  0  0  0  0  0  0  0  0
  -17.9781   50.8933  -23.1257 C   0  0  0  0  0  0  0  0  0  0  0  0
  -16.8179   50.1258  -23.1846 C   0  0  0  0  0  0  0  0  0  0  0  0
  -16.7014   49.0312  -22.3800 C   0  0  0  0  0  0  0  0  0  0  0  0
  -17.7331   48.7105  -21.5283 C   0  0  0  0  0  0  0  0  0  0  0  0
  1  2  1  0
  2  3  1  0
  3  4  2  0
  4  5  1  0
  5  6  1  0
  6  7  1  0
  7  8  1  0
  7  9  2  0
  7 10  2  0
  5 11  2  0
 11 12  1  0
 12 13  2  0
 13 14  1  0
 14 15  1  0
 15 16  1  0
 16 17  2  0
 17 18  1  0
 18 19  2  0
 19 20  1  0
 20 21  2  0
 21 22  1  0
 22 23  2  0
 23 24  1  0
 24 25  2  0
 25 26  1  0
 26 27  2  0
 27 28  1  0
 13  3  1  0
 28 15  2  0
 21 16  1  0
 28 23  1  0
M  END
$$$$
