
     RDKit          3D

 10 11  0  0  0  0  0  0  0  0999 V2000
  -15.7881   18.5877  -29.2566 N   0  0  0  0  0  0  0  0  0  0  0  0
  -16.1554   17.4980  -30.0452 N   0  0  0  0  0  0  0  0  0  0  0  0
  -17.0783   16.5884  -29.8372 N   0  0  0  0  0  0  0  0  0  0  0  0
  -17.1169   15.7150  -30.8289 N   0  0  0  0  0  0  0  0  0  0  0  0
  -16.1779   16.0587  -31.7377 C   0  0  0  0  0  0  0  0  0  0  0  0
  -15.8049   15.4965  -32.9355 C   0  0  0  0  0  0  0  0  0  0  0  0
  -14.7905   16.0888  -33.6523 C   0  0  0  0  0  0  0  0  0  0  0  0
  -14.1767   17.2399  -33.1367 C   0  0  0  0  0  0  0  0  0  0  0  0
  -14.5589   17.7812  -31.9509 C   0  0  0  0  0  0  0  0  0  0  0  0
  -15.5728   17.1949  -31.2276 C   0  0  0  0  0  0  0  0  0  0  0  0
  1  2  1  0
  2  3  1  0
  3  4  2  0
  4  5  1  0
  5  6  2  0
  6  7  1  0
  7  8  2  0
  8  9  1  0
  9 10  2  0
 10  2  1  0
 10  5  1  0
M  END
$$$$
