
     RDKit          3D

 23 25  0  0  0  0  0  0  0  0999 V2000
  -13.1049   44.5453  -20.3493 C   0  0  0  0  0  0  0  0  0  0  0  0
  -14.0093   43.6509  -21.2088 C   0  0  0  0  0  0  0  0  0  0  0  0
  -15.3899   43.7259  -20.6310 C   0  0  0  0  0  0  0  0  0  0  0  0
  -16.1586   44.9238  -21.0741 C   0  0  0  0  0  0  0  0  0  0  0  0
  -15.5700   45.9985  -21.4518 O   0  0  0  0  0  0  0  0  0  0  0  0
  -17.5762   44.9863  -21.1183 N   0  0  0  0  0  0  0  0  0  0  0  0
  -18.2341   46.0615  -21.7829 C   0  0  0  0  0  0  0  0  0  0  0  0
  -17.8425   46.2792  -23.1133 C   0  0  0  0  0  0  0  0  0  0  0  0
  -18.4291   47.2952  -23.8233 C   0  0  0  0  0  0  0  0  0  0  0  0
  -19.3846   48.0872  -23.2424 C   0  0  0  0  0  0  0  0  0  0  0  0
  -19.7331   47.8394  -21.9498 C   0  0  0  0  0  0  0  0  0  0  0  0
  -19.1806   46.8215  -21.1575 C   0  0  0  0  0  0  0  0  0  0  0  0
  -19.6210   46.6430  -19.8200 N   0  0  0  0  0  0  0  0  0  0  0  0
  -20.7661   47.2986  -19.2366 C   0  0  0  0  0  0  0  0  0  0  0  0
  -20.2537   47.6236  -17.8237 C   0  0  0  0  0  0  0  0  0  0  0  0
  -19.6816   46.2423  -17.4772 C   0  0  0  0  0  0  0  0  0  0  0  0
  -19.0504   45.7920  -18.8122 C   0  0  0  0  0  0  0  0  0  0  0  0
  -16.1420   42.4618  -20.7837 C   0  0  0  0  0  0  0  0  0  0  0  0
  -15.9676   41.6432  -21.9069 C   0  0  0  0  0  0  0  0  0  0  0  0
  -16.6655   40.4677  -22.0720 C   0  0  0  0  0  0  0  0  0  0  0  0
  -17.5752   40.0423  -21.1285 C   0  0  0  0  0  0  0  0  0  0  0  0
  -17.7636   40.8308  -20.0158 C   0  0  0  0  0  0  0  0  0  0  0  0
  -17.0530   42.0256  -19.8502 C   0  0  0  0  0  0  0  0  0  0  0  0
  1  2  1  0
  2  3  1  0
  3  4  1  0
  4  5  2  0
  4  6  1  0
  6  7  1  0
  7  8  2  0
  8  9  1  0
  9 10  2  0
 10 11  1  0
 11 12  2  0
 12 13  1  0
 13 14  1  0
 14 15  1  0
 15 16  1  0
 16 17  1  0
  3 18  1  0
 18 19  2  0
 19 20  1  0
 20 21  2  0
 21 22  1  0
 22 23  2  0
 12  7  1  0
 17 13  1  0
 23 18  1  0
M  END
$$$$
