
     RDKit          3D

 30 31  0  0  0  0  0  0  0  0999 V2000
    2.4756   27.3667  -18.9410 C   0  0  0  0  0  0  0  0  0  0  0  0
    3.2244   26.4066  -18.0780 C   0  0  0  0  0  0  0  0  0  0  0  0
    2.6281   26.3705  -16.7096 C   0  0  0  0  0  0  0  0  0  0  0  0
    4.6699   26.8752  -18.0119 C   0  0  0  0  0  0  0  0  0  0  0  0
    3.1519   25.0447  -18.6810 C   0  0  0  0  0  0  0  0  0  0  0  0
    2.0608   24.4576  -18.8923 O   0  0  0  0  0  0  0  0  0  0  0  0
    4.2995   24.3610  -19.0382 O   0  0  0  0  0  0  0  0  0  0  0  0
    4.3954   22.9777  -19.0393 C   0  0  0  0  0  0  0  0  0  0  0  0
    4.0102   22.3002  -20.1755 C   0  0  0  0  0  0  0  0  0  0  0  0
    4.0668   20.9221  -20.2791 C   0  0  0  0  0  0  0  0  0  0  0  0
    4.5271   20.1914  -19.2031 C   0  0  0  0  0  0  0  0  0  0  0  0
    4.6007   18.4555  -19.3272 S   0  0  0  0  0  6  0  0  0  0  0  0
    5.8088   18.1195  -20.1975 O   0  0  0  0  0  0  0  0  0  0  0  0
    4.9432   17.8410  -17.9808 O   0  0  0  0  0  0  0  0  0  0  0  0
    3.1869   17.7419  -19.9865 N   0  0  0  0  0  0  0  0  0  0  0  0
    1.9576   17.6680  -19.3202 C   0  0  0  0  0  0  0  0  0  0  0  0
    1.7187   18.4417  -18.1969 C   0  0  0  0  0  0  0  0  0  0  0  0
    0.4977   18.3655  -17.5906 C   0  0  0  0  0  0  0  0  0  0  0  0
   -0.5052   17.5474  -18.0558 C   0  0  0  0  0  0  0  0  0  0  0  0
   -0.2441   16.7816  -19.1820 C   0  0  0  0  0  0  0  0  0  0  0  0
    0.9604   16.8177  -19.8290 C   0  0  0  0  0  0  0  0  0  0  0  0
    1.2513   16.0081  -20.9986 C   0  0  0  0  0  0  0  0  0  0  0  0
    2.4060   15.8789  -21.4685 O   0  0  0  0  0  0  0  0  0  0  0  0
    0.2336   15.3071  -21.6871 N   0  0  0  0  0  0  0  0  0  0  0  0
    0.5271   14.5348  -22.9064 C   0  0  0  0  0  0  0  0  0  0  0  0
    1.5512   13.5346  -22.5978 C   0  0  0  0  0  0  0  0  0  0  0  0
    2.5678   13.4292  -23.3086 O   0  0  0  0  0  0  0  0  0  0  0  0
    1.3722   12.7055  -21.5011 O   0  0  0  0  0  0  0  0  0  0  0  0
    4.9138   20.8648  -18.0634 C   0  0  0  0  0  0  0  0  0  0  0  0
    4.8552   22.2450  -17.9649 C   0  0  0  0  0  0  0  0  0  0  0  0
  1  2  1  0
  2  3  1  0
  2  4  1  0
  2  5  1  0
  5  6  2  0
  5  7  1  0
  7  8  1  0
  8  9  2  0
  9 10  1  0
 10 11  2  0
 11 12  1  0
 12 13  2  0
 12 14  2  0
 12 15  1  0
 15 16  1  0
 16 17  2  0
 17 18  1  0
 18 19  2  0
 19 20  1  0
 20 21  2  0
 21 22  1  0
 22 23  2  0
 22 24  1  0
 24 25  1  0
 25 26  1  0
 26 27  2  0
 26 28  1  0
 11 29  1  0
 29 30  2  0
 30  8  1  0
 21 16  1  0
M  END
$$$$
