
     RDKit          3D

 21 22  0  0  0  0  0  0  0  0999 V2000
  -18.1875   -3.6484  -32.7145 C   0  0  0  0  0  0  0  0  0  0  0  0
  -16.7605   -3.4573  -32.7724 N   0  0  0  0  0  0  0  0  0  0  0  0
  -16.2593   -2.6316  -31.6748 C   0  0  0  0  0  0  0  0  0  0  0  0
  -16.7029   -1.2168  -31.7659 C   0  0  0  0  0  0  0  0  0  0  0  0
  -16.3189   -0.4537  -32.9657 C   0  0  0  0  0  0  0  0  0  0  0  0
  -14.8634   -0.2370  -33.2309 C   0  0  0  0  0  0  0  0  0  0  0  0
  -14.8034    0.5379  -34.5027 C   0  0  0  0  0  0  0  0  0  0  0  0
  -14.5212   -0.2979  -35.5533 C   0  0  0  0  0  0  0  0  0  0  0  0
  -14.4287    0.1920  -36.8632 C   0  0  0  0  0  0  0  0  0  0  0  0
  -14.6253    1.5359  -37.0931 C   0  0  0  0  0  0  0  0  0  0  0  0
  -14.9139    2.3985  -36.0246 C   0  0  0  0  0  0  0  0  0  0  0  0
  -14.9943    1.8704  -34.7561 C   0  0  0  0  0  0  0  0  0  0  0  0
  -15.2898    2.8913  -33.7808 C   0  0  0  0  0  0  0  0  0  0  0  0
  -14.9658    2.8614  -32.5012 C   0  0  0  0  0  0  0  0  0  0  0  0
  -14.2517    1.8250  -31.7762 C   0  0  0  0  0  0  0  0  0  0  0  0
  -13.5790    2.2973  -30.6948 C   0  0  0  0  0  0  0  0  0  0  0  0
  -12.8349    1.4183  -29.9444 C   0  0  0  0  0  0  0  0  0  0  0  0
  -12.7387    0.0788  -30.2379 C   0  0  0  0  0  0  0  0  0  0  0  0
  -13.4408   -0.3794  -31.3549 C   0  0  0  0  0  0  0  0  0  0  0  0
  -14.1947    0.4791  -32.1227 C   0  0  0  0  0  0  0  0  0  0  0  0
  -15.5849   -0.6868  -32.9537 Cl  0  0  0  0  0  0  0  0  0  0  0  0
  1  2  1  0
  2  3  1  0
  3  4  1  0
  4  5  1  0
  5  6  1  0
  6  7  1  0
  7  8  2  0
  8  9  1  0
  9 10  2  0
 10 11  1  0
 11 12  2  0
 12 13  1  0
 13 14  2  0
 14 15  1  0
 15 16  2  0
 16 17  1  0
 17 18  2  0
 18 19  1  0
 19 20  2  0
 20  6  1  0
 12  7  1  0
 20 15  1  0
M  END
$$$$
