
     RDKit          3D

 15 16  0  0  0  0  0  0  0  0999 V2000
  -12.4311    2.4640  -30.6895 C   0  0  0  0  0  0  0  0  0  0  0  0
  -13.4683    1.5034  -31.1364 C   0  0  0  0  0  0  0  0  0  0  0  0
  -14.7066    1.9325  -31.5635 C   0  0  0  0  0  0  0  0  0  0  0  0
  -15.6598    1.0274  -31.9757 C   0  0  0  0  0  0  0  0  0  0  0  0
  -16.9563    1.4072  -32.4276 N   0  0  0  0  0  0  0  0  0  0  0  0
  -17.6842    2.4145  -31.9480 N   0  0  0  0  0  0  0  0  0  0  0  0
  -18.8495    2.5106  -32.5807 C   0  0  0  0  0  0  0  0  0  0  0  0
  -19.9024    3.5264  -32.2945 C   0  0  0  0  0  0  0  0  0  0  0  0
  -18.8789    1.5185  -33.5153 C   0  0  0  0  0  0  0  0  0  0  0  0
  -17.6851    0.8362  -33.4063 C   0  0  0  0  0  0  0  0  0  0  0  0
  -17.3055   -0.3236  -34.2424 C   0  0  0  0  0  0  0  0  0  0  0  0
  -15.3377   -0.2738  -31.9448 N   0  0  0  0  0  0  0  0  0  0  0  0
  -14.1332   -0.6973  -31.5296 C   0  0  0  0  0  0  0  0  0  0  0  0
  -13.8318   -2.1010  -31.5132 N   0  0  0  0  0  0  0  0  0  0  0  0
  -13.2125    0.1860  -31.1309 N   0  0  0  0  0  0  0  0  0  0  0  0
  1  2  1  0
  2  3  2  0
  3  4  1  0
  4  5  1  0
  5  6  1  0
  6  7  2  0
  7  8  1  0
  7  9  1  0
  9 10  2  0
 10 11  1  0
  4 12  2  0
 12 13  1  0
 13 14  1  0
 13 15  2  0
 15  2  1  0
 10  5  1  0
M  END
$$$$
