
     RDKit          3D

 35 39  0  0  0  0  0  0  0  0999 V2000
  -16.9567   45.6976  -22.7162 C   0  0  0  0  0  0  0  0  0  0  0  0
  -15.9977   45.1339  -21.6934 C   0  0  0  0  0  0  0  0  0  0  0  0
  -16.3246   43.9505  -21.1294 N   0  0  0  0  0  0  0  0  0  0  0  0
  -15.4284   43.4883  -20.2096 C   0  0  0  0  0  0  0  0  0  0  0  0
  -15.5955   42.2779  -19.5193 N   0  0  0  0  0  0  0  0  0  0  0  0
  -16.8667   41.6098  -19.6532 C   0  0  0  0  0  0  0  0  0  0  0  0
  -17.8422   41.5670  -18.7082 N   0  0  0  0  0  0  0  0  0  0  0  0
  -18.8823   40.8903  -19.1418 N   0  0  0  0  0  0  0  0  0  0  0  0
  -18.6316   40.4552  -20.4037 C   0  0  0  0  0  0  0  0  0  0  0  0
  -17.3736   40.9025  -20.7250 C   0  0  0  0  0  0  0  0  0  0  0  0
  -17.0402   40.4477  -22.1072 C   0  0  0  0  0  0  0  0  0  0  0  0
  -18.0118   39.4116  -22.3612 N   0  0  0  0  0  0  0  0  0  0  0  0
  -17.9708   38.2928  -23.2412 C   0  0  0  0  0  0  0  0  0  0  0  0
  -16.8626   37.8958  -23.7439 O   0  0  0  0  0  0  0  0  0  0  0  0
  -19.1003   37.5331  -23.6312 N   0  0  0  0  0  0  0  0  0  0  0  0
  -18.9962   36.4097  -24.5507 C   0  0  2  0  0  0  0  0  0  0  0  0
  -19.8915   36.4811  -25.7243 C   0  0  0  0  0  0  0  0  0  0  0  0
  -20.0214   37.7551  -26.3768 N   0  0  0  0  0  0  0  0  0  0  0  0
  -18.9120   37.9149  -27.3518 C   0  0  0  0  0  0  0  0  0  0  0  0
  -21.2523   37.7836  -27.1816 C   0  0  0  0  0  0  0  0  0  0  0  0
  -19.0617   35.1689  -23.7363 C   0  0  0  0  0  0  0  0  0  0  0  0
  -19.2826   35.1970  -22.3647 C   0  0  0  0  0  0  0  0  0  0  0  0
  -19.3838   34.0672  -21.5871 C   0  0  0  0  0  0  0  0  0  0  0  0
  -19.2649   32.8263  -22.1664 C   0  0  0  0  0  0  0  0  0  0  0  0
  -19.0465   32.7519  -23.5185 C   0  0  0  0  0  0  0  0  0  0  0  0
  -18.9482   33.8913  -24.2791 C   0  0  0  0  0  0  0  0  0  0  0  0
  -19.1637   39.7107  -21.5617 C   0  0  0  0  0  0  0  0  0  0  0  0
  -20.1425   40.5994  -22.3487 C   0  0  0  0  0  0  0  0  0  0  0  0
  -19.8908   38.4814  -21.0652 C   0  0  0  0  0  0  0  0  0  0  0  0
  -14.2936   44.2531  -19.9440 C   0  0  0  0  0  0  0  0  0  0  0  0
  -12.8905   44.0046  -18.8244 S   0  0  0  0  0  0  0  0  0  0  0  0
  -11.9853   45.5919  -19.2658 C   0  0  0  0  0  0  0  0  0  0  0  0
  -12.8687   46.0889  -20.1972 C   0  0  0  0  0  0  0  0  0  0  0  0
  -13.9792   45.4314  -20.5142 C   0  0  0  0  0  0  0  0  0  0  0  0
  -14.9266   45.8600  -21.4457 N   0  0  0  0  0  0  0  0  0  0  0  0
  1  2  1  0
  2  3  2  0
  3  4  1  0
  4  5  1  0
  5  6  1  0
  6  7  2  0
  7  8  1  0
  8  9  1  0
  9 10  2  0
 10 11  1  0
 11 12  1  0
 12 13  1  0
 13 14  2  0
 13 15  1  0
 15 16  1  0
 16 17  1  6
 17 18  1  0
 18 19  1  0
 18 20  1  0
 16 21  1  0
 21 22  2  0
 22 23  1  0
 23 24  2  0
 24 25  1  0
 25 26  2  0
 12 27  1  0
 27 28  1  0
 27 29  1  0
  4 30  2  0
 30 31  1  0
 31 32  1  0
 32 33  2  0
 33 34  1  0
 34 35  2  0
 35  2  1  0
 10  6  1  0
 26 21  1  0
 34 30  1  0
 27  9  1  0
M  END
$$$$
