
     RDKit          3D

 25 28  0  0  0  0  0  0  0  0999 V2000
  -14.9139   19.4256  -36.7727 O   0  0  0  0  0  0  0  0  0  0  0  0
  -15.7059   18.4815  -36.5565 C   0  0  0  0  0  0  0  0  0  0  0  0
  -15.4901   17.6806  -35.4576 C   0  0  0  0  0  0  0  0  0  0  0  0
  -14.4259   17.9241  -34.6252 C   0  0  0  0  0  0  0  0  0  0  0  0
  -14.2196   17.1241  -33.5353 C   0  0  0  0  0  0  0  0  0  0  0  0
  -15.0812   16.0839  -33.2859 C   0  0  0  0  0  0  0  0  0  0  0  0
  -16.1485   15.8365  -34.1173 C   0  0  0  0  0  0  0  0  0  0  0  0
  -16.3721   16.6340  -35.2221 C   0  0  0  0  0  0  0  0  0  0  0  0
  -17.3940   16.4519  -36.0770 N   0  0  0  0  0  0  0  0  0  0  0  0
  -17.5578   17.2723  -37.1431 C   0  0  0  0  0  0  0  0  0  0  0  0
  -18.9227   16.9913  -38.2510 S   0  0  0  0  0  0  0  0  0  0  0  0
  -20.0565   15.7753  -37.5379 C   0  0  0  0  0  0  0  0  0  0  0  0
  -20.9973   16.3742  -36.5633 C   0  0  0  0  0  0  0  0  0  0  0  0
  -22.0959   17.0852  -36.9921 C   0  0  0  0  0  0  0  0  0  0  0  0
  -22.9920   17.6560  -36.1132 C   0  0  0  0  0  0  0  0  0  0  0  0
  -22.7587   17.4958  -34.7633 C   0  0  0  0  0  0  0  0  0  0  0  0
  -21.6687   16.7902  -34.2895 C   0  0  0  0  0  0  0  0  0  0  0  0
  -20.8036   16.2396  -35.2114 C   0  0  0  0  0  0  0  0  0  0  0  0
  -16.7263   18.2867  -37.3956 N   0  0  0  0  0  0  0  0  0  0  0  0
  -16.9032   19.1320  -38.5093 C   0  0  0  0  0  0  0  0  0  0  0  0
  -16.1229   19.0191  -39.6425 C   0  0  0  0  0  0  0  0  0  0  0  0
  -16.2812   19.8280  -40.7383 C   0  0  0  0  0  0  0  0  0  0  0  0
  -17.2516   20.7988  -40.7290 C   0  0  0  0  0  0  0  0  0  0  0  0
  -18.0644   20.9556  -39.6138 C   0  0  0  0  0  0  0  0  0  0  0  0
  -17.8755   20.1326  -38.5464 C   0  0  0  0  0  0  0  0  0  0  0  0
  1  2  2  0
  2  3  1  0
  3  4  2  0
  4  5  1  0
  5  6  2  0
  6  7  1  0
  7  8  2  0
  8  9  1  0
  9 10  2  0
 10 11  1  0
 11 12  1  0
 12 13  1  0
 13 14  2  0
 14 15  1  0
 15 16  2  0
 16 17  1  0
 17 18  2  0
 10 19  1  0
 19 20  1  0
 20 21  2  0
 21 22  1  0
 22 23  2  0
 23 24  1  0
 24 25  2  0
 19  2  1  0
 25 20  1  0
  8  3  1  0
 18 13  1  0
M  END
$$$$
