
     RDKit          3D

 50 55  0  0  0  0  0  0  0  0999 V2000
  -23.8940   16.6317  -25.3852 O   0  0  0  0  0  0  0  0  0  0  0  0
  -24.4558   17.5330  -24.7308 C   0  0  0  0  0  0  0  0  0  0  0  0
  -25.8043   17.2875  -24.2857 N   0  0  0  0  0  0  0  0  0  0  0  0
  -26.3521   15.9468  -24.2539 C   0  0  0  0  0  0  0  0  0  0  0  0
  -26.5428   15.5206  -25.6985 C   0  0  0  0  0  0  0  0  0  0  0  0
  -27.3699   14.2872  -25.7351 C   0  0  0  0  0  0  0  0  0  0  0  0
  -28.7239   14.5781  -25.3477 N   0  0  0  0  0  0  0  0  0  0  0  0
  -29.5472   14.9146  -26.5059 C   0  0  0  0  0  0  0  0  0  0  0  0
  -29.7880   13.5565  -27.2342 C   0  0  0  0  0  0  0  0  0  0  0  0
  -31.1170   13.1011  -26.7297 C   0  0  0  0  0  0  0  0  0  0  0  0
  -32.3171   13.8882  -26.9355 C   0  0  0  0  0  0  0  0  0  0  0  0
  -33.5726   13.2238  -27.3379 C   0  0  0  0  0  0  0  0  0  0  0  0
  -34.0207   13.4508  -28.7376 C   0  0  0  0  0  0  0  0  0  0  0  0
  -34.0372   12.5168  -29.5590 O   0  0  0  0  0  0  0  0  0  0  0  0
  -34.4436   14.7332  -29.1855 N   0  0  0  0  0  0  0  0  0  0  0  0
  -33.6998   15.9425  -28.8972 C   0  0  0  0  0  0  0  0  0  0  0  0
  -34.2005   17.0220  -29.8318 C   0  0  0  0  0  0  0  0  0  0  0  0
  -34.4395   18.1958  -29.1253 F   0  0  0  0  0  0  0  0  0  0  0  0
  -33.1939   17.3129  -30.7579 F   0  0  0  0  0  0  0  0  0  0  0  0
  -35.3557   16.6597  -30.4688 F   0  0  0  0  0  0  0  0  0  0  0  0
  -34.6807   13.6293  -26.4019 C   0  0  0  0  0  0  0  0  0  0  0  0
  -35.2116   14.9189  -26.1631 C   0  0  0  0  0  0  0  0  0  0  0  0
  -36.2121   15.0969  -25.2358 C   0  0  0  0  0  0  0  0  0  0  0  0
  -36.6819   13.9787  -24.5456 C   0  0  0  0  0  0  0  0  0  0  0  0
  -36.1492   12.7361  -24.7970 C   0  0  0  0  0  0  0  0  0  0  0  0
  -35.1409   12.5610  -25.7333 C   0  0  0  0  0  0  0  0  0  0  0  0
  -34.4252   11.3944  -26.2189 C   0  0  0  0  0  0  0  0  0  0  0  0
  -34.5714   10.0367  -25.8573 C   0  0  0  0  0  0  0  0  0  0  0  0
  -33.8150    9.0682  -26.4742 C   0  0  0  0  0  0  0  0  0  0  0  0
  -32.9242    9.4684  -27.4429 C   0  0  0  0  0  0  0  0  0  0  0  0
  -32.7518   10.7767  -27.8228 C   0  0  0  0  0  0  0  0  0  0  0  0
  -33.5317   11.7447  -27.1799 C   0  0  0  0  0  0  0  0  0  0  0  0
  -28.8360   15.5783  -24.3263 C   0  0  0  0  0  0  0  0  0  0  0  0
  -27.6401   15.8382  -23.4829 C   0  0  0  0  0  0  0  0  0  0  0  0
  -23.8467   18.8187  -24.3833 C   0  0  0  0  0  0  0  0  0  0  0  0
  -24.4666   20.0025  -24.8228 C   0  0  0  0  0  0  0  0  0  0  0  0
  -23.9505   21.2433  -24.5848 C   0  0  0  0  0  0  0  0  0  0  0  0
  -22.7692   21.2969  -23.8800 C   0  0  0  0  0  0  0  0  0  0  0  0
  -22.1260   20.1769  -23.4292 C   0  0  0  0  0  0  0  0  0  0  0  0
  -22.6802   18.9151  -23.6877 C   0  0  0  0  0  0  0  0  0  0  0  0
  -21.9903   17.7302  -23.1435 C   0  0  0  0  0  0  0  0  0  0  0  0
  -21.4719   16.8074  -24.0280 C   0  0  0  0  0  0  0  0  0  0  0  0
  -20.7757   15.6823  -23.6017 C   0  0  0  0  0  0  0  0  0  0  0  0
  -20.5816   15.4557  -22.2532 C   0  0  0  0  0  0  0  0  0  0  0  0
  -19.8447   14.2695  -21.7293 C   0  0  0  0  0  0  0  0  0  0  0  0
  -20.0637   14.1238  -20.3801 F   0  0  0  0  0  0  0  0  0  0  0  0
  -20.2285   13.1455  -22.4400 F   0  0  0  0  0  0  0  0  0  0  0  0
  -18.4836   14.4352  -21.9797 F   0  0  0  0  0  0  0  0  0  0  0  0
  -21.0983   16.3771  -21.3682 C   0  0  0  0  0  0  0  0  0  0  0  0
  -21.7987   17.5095  -21.8015 C   0  0  0  0  0  0  0  0  0  0  0  0
  1  2  2  0
  2  3  1  0
  3  4  1  0
  4  5  1  0
  5  6  1  0
  6  7  1  0
  7  8  1  0
  8  9  1  0
  9 10  1  0
 10 11  1  0
 11 12  1  0
 12 13  1  0
 13 14  2  0
 13 15  1  0
 15 16  1  0
 16 17  1  0
 17 18  1  0
 17 19  1  0
 17 20  1  0
 12 21  1  0
 21 22  2  0
 22 23  1  0
 23 24  2  0
 24 25  1  0
 25 26  2  0
 26 27  1  0
 27 28  2  0
 28 29  1  0
 29 30  2  0
 30 31  1  0
 31 32  2  0
  7 33  1  0
 33 34  1  0
  2 35  1  0
 35 36  2  0
 36 37  1  0
 37 38  2  0
 38 39  1  0
 39 40  2  0
 40 41  1  0
 41 42  2  0
 42 43  1  0
 43 44  2  0
 44 45  1  0
 45 46  1  0
 45 47  1  0
 45 48  1  0
 44 49  1  0
 49 50  2  0
 34  4  1  0
 40 35  1  0
 50 41  1  0
 32 12  1  0
 26 21  1  0
 32 27  1  0
M  END
$$$$
