
     RDKit          3D

 11 10  0  0  0  0  0  0  0  0999 V2000
  -18.7624   38.8982  -20.6858 N   0  0  0  0  0  0  0  0  0  0  0  0
  -17.6284   38.5801  -21.4962 C   0  0  1  0  0  0  0  0  0  0  0  0
  -17.4159   37.0950  -21.6663 C   0  0  0  0  0  0  0  0  0  0  0  0
  -18.5592   36.4468  -22.1220 O   0  0  0  0  0  0  0  0  0  0  0  0
  -18.2474   34.7846  -22.0478 P   0  0  0  0  0  5  0  0  0  0  0  0
  -17.3325   34.3501  -23.1684 O   0  0  0  0  0  0  0  0  0  0  0  0
  -17.4758   34.4360  -20.5846 O   0  0  0  0  0  0  0  0  0  0  0  0
  -19.6595   33.8718  -22.1120 O   0  0  0  0  0  0  0  0  0  0  0  0
  -17.6505   39.2174  -22.8211 C   0  0  0  0  0  0  0  0  0  0  0  0
  -18.6744   39.8769  -23.1379 O   0  0  0  0  0  0  0  0  0  0  0  0
  -16.6203   39.1406  -23.7434 O   0  0  0  0  0  0  0  0  0  0  0  0
  2  1  1  6
  2  3  1  0
  3  4  1  0
  4  5  1  0
  5  6  2  0
  5  7  1  0
  5  8  1  0
  2  9  1  0
  9 10  2  0
  9 11  1  0
M  END
$$$$
