
     RDKit          3D

 30 33  0  0  0  0  0  0  0  0999 V2000
  -11.9576   -3.6445  -37.2367 C   0  0  0  0  0  0  0  0  0  0  0  0
  -13.1127   -3.9802  -36.3085 C   0  0  0  0  0  0  0  0  0  0  0  0
  -13.6473   -2.7042  -35.6672 C   0  0  2  0  0  0  0  0  0  0  0  0
  -13.0866   -2.4538  -34.3125 C   0  0  2  0  0  0  0  0  0  0  0  0
  -12.5124   -3.6189  -33.5799 C   0  0  0  0  0  0  0  0  0  0  0  0
  -13.3780   -4.2345  -32.5260 C   0  0  2  0  0  0  0  0  0  0  0  0
  -14.2806   -5.1820  -33.0085 O   0  0  0  0  0  0  0  0  0  0  0  0
  -14.0331   -3.2358  -31.6145 C   0  0  0  0  0  0  0  0  0  0  0  0
  -13.6447   -1.8505  -31.9766 C   0  0  0  0  0  0  0  0  0  0  0  0
  -13.9170   -1.5444  -33.4566 C   0  0  1  0  0  0  0  0  0  0  0  0
  -13.4783   -0.0975  -33.6195 C   0  0  0  0  0  0  0  0  0  0  0  0
  -15.3807   -1.6470  -33.6637 C   0  0  1  0  0  0  0  0  0  0  0  0
  -16.1890   -0.8137  -32.7423 C   0  0  0  0  0  0  0  0  0  0  0  0
  -17.6407   -0.6736  -33.1547 C   0  0  0  0  0  0  0  0  0  0  0  0
  -17.7866   -0.2558  -34.5782 C   0  0  1  0  0  0  0  0  0  0  0  0
  -17.0402    0.9908  -34.9277 C   0  0  0  0  0  0  0  0  0  0  0  0
  -17.1641   -1.4307  -35.3239 C   0  0  1  0  0  0  0  0  0  0  0  0
  -17.6034   -1.3359  -36.7345 C   0  0  0  0  0  0  0  0  0  0  0  0
  -18.8566   -0.4883  -36.6317 C   0  0  0  0  0  0  0  0  0  0  0  0
  -19.1358   -0.3334  -35.1533 C   0  0  2  0  0  0  0  0  0  0  0  0
  -20.1777    0.6543  -34.9931 C   0  0  2  0  0  0  0  0  0  0  0  0
  -19.7977    1.9837  -34.3870 C   0  0  0  0  0  0  0  0  0  0  0  0
  -21.4788    0.2614  -34.3877 C   0  0  0  0  0  0  0  0  0  0  0  0
  -22.6614    0.7956  -35.1668 C   0  0  0  0  0  0  0  0  0  0  0  0
  -23.1359   -0.1429  -36.1864 C   0  0  0  0  0  0  0  0  0  0  0  0
  -22.6256   -1.2735  -36.2858 O   0  0  0  0  0  0  0  0  0  0  0  0
  -24.1489    0.2198  -37.0406 O   0  0  0  0  0  0  0  0  0  0  0  0
  -15.6820   -1.4839  -35.1139 C   0  0  2  0  0  0  0  0  0  0  0  0
  -15.1280   -2.7394  -35.7798 C   0  0  2  0  0  0  0  0  0  0  0  0
  -15.7547   -3.8790  -35.3745 O   0  0  0  0  0  0  0  0  0  0  0  0
  1  2  1  0
  3  2  1  1
  3  4  1  0
  4  5  1  1
  5  6  1  0
  6  7  1  6
  6  8  1  0
  8  9  1  0
  9 10  1  0
 10 11  1  1
 10 12  1  0
 12 13  1  1
 13 14  1  0
 14 15  1  0
 15 16  1  1
 15 17  1  0
 17 18  1  6
 18 19  1  0
 20 19  1  6
 20 21  1  0
 21 22  1  1
 21 23  1  0
 23 24  1  0
 24 25  1  0
 25 26  2  0
 25 27  1  0
 17 28  1  0
 28 29  1  6
 29 30  1  1
 29  3  1  0
 10  4  1  0
 28 12  1  0
 20 15  1  0
M  END
$$$$
