
     RDKit          3D

 18 18  0  0  0  0  0  0  0  0999 V2000
  -16.8045   36.0518  -19.7803 O   0  0  0  0  0  0  0  0  0  0  0  0
  -16.2253   35.8985  -20.8838 C   0  0  0  0  0  0  0  0  0  0  0  0
  -14.9327   35.4319  -20.9923 O   0  0  0  0  0  1  0  0  0  0  0  0
  -16.9536   36.2295  -22.1097 C   0  0  0  0  0  0  0  0  0  0  0  0
  -18.1879   36.6796  -22.0902 C   0  0  0  0  0  0  0  0  0  0  0  0
  -18.9467   37.0203  -23.2873 C   0  0  0  0  0  0  0  0  0  0  0  0
  -18.4543   36.9081  -24.5668 C   0  0  0  0  0  0  0  0  0  0  0  0
  -19.2308   37.2496  -25.6582 C   0  0  0  0  0  0  0  0  0  0  0  0
  -20.5209   37.7153  -25.5481 C   0  0  0  0  0  0  0  0  0  0  0  0
  -21.3088   38.0660  -26.7330 C   0  0  0  0  0  0  0  0  0  0  0  0
  -21.1613   39.4381  -27.1260 N   0  0  0  0  0  0  0  0  0  0  0  0
  -21.8953   40.4839  -26.7265 C   0  0  0  0  0  0  0  0  0  0  0  0
  -21.4251   41.6268  -27.3406 C   0  0  0  0  0  0  0  0  0  0  0  0
  -20.3974   41.2329  -28.1114 N   0  0  0  0  0  0  0  0  0  0  0  0
  -20.2382   39.9046  -27.9804 C   0  0  0  0  0  0  0  0  0  0  0  0
  -21.0117   37.8267  -24.2632 C   0  0  0  0  0  0  0  0  0  0  0  0
  -20.2570   37.4926  -23.1626 C   0  0  0  0  0  0  0  0  0  0  0  0
  -19.6802   37.9869  -24.7868 Na  0  0  0  0  0 15  0  0  0  0  0  0
  1  2  2  0
  2  3  1  0
  2  4  1  0
  4  5  2  0
  5  6  1  0
  6  7  2  0
  7  8  1  0
  8  9  2  0
  9 10  1  0
 10 11  1  0
 11 12  1  0
 12 13  2  0
 13 14  1  0
 14 15  2  0
  9 16  1  0
 16 17  2  0
 17  6  1  0
 15 11  1  0
M  CHG  2   3  -1  18   1
M  END
$$$$
