
     RDKit          3D

 18 19  0  0  0  0  0  0  0  0999 V2000
  -17.2508   33.8832  -21.9052 C   0  0  0  0  0  0  0  0  0  0  0  0
  -17.0806   35.3879  -22.0005 C   0  0  0  0  0  0  0  0  0  0  0  0
  -18.4188   36.0826  -21.9234 C   0  0  0  0  0  0  0  0  0  0  0  0
  -18.1617   37.5176  -22.0203 N   0  0  0  0  0  0  0  0  0  0  0  0
  -18.1739   38.2652  -23.1035 N   0  0  0  0  0  0  0  0  0  0  0  0
  -17.8933   39.5262  -22.8021 N   0  0  0  0  0  0  0  0  0  0  0  0
  -17.6927   39.5936  -21.4746 C   0  0  0  0  0  0  0  0  0  0  0  0
  -17.3628   40.7417  -20.6743 N   0  0  0  0  0  0  0  0  0  0  0  0
  -17.3778   42.0522  -21.2215 C   0  0  0  0  0  0  0  0  0  0  0  0
  -17.7118   42.1539  -22.4326 O   0  0  0  0  0  0  0  0  0  0  0  0
  -17.0210   43.2542  -20.4226 C   0  0  0  0  0  0  0  0  0  0  0  0
  -15.6687   43.7507  -20.7475 C   0  0  0  0  0  0  0  0  0  0  0  0
  -15.4943   44.9143  -21.4853 C   0  0  0  0  0  0  0  0  0  0  0  0
  -14.2383   45.3877  -21.7948 C   0  0  0  0  0  0  0  0  0  0  0  0
  -13.1050   44.7254  -21.3846 C   0  0  0  0  0  0  0  0  0  0  0  0
  -13.2583   43.5664  -20.6498 C   0  0  0  0  0  0  0  0  0  0  0  0
  -14.5230   43.0978  -20.3433 C   0  0  0  0  0  0  0  0  0  0  0  0
  -17.8663   38.3383  -21.0274 N   0  0  0  0  0  0  0  0  0  0  0  0
  1  2  1  0
  2  3  1  0
  3  4  1  0
  4  5  1  0
  5  6  2  0
  6  7  1  0
  7  8  1  0
  8  9  1  0
  9 10  2  0
  9 11  1  0
 11 12  1  0
 12 13  2  0
 13 14  1  0
 14 15  2  0
 15 16  1  0
 16 17  2  0
  7 18  2  0
 18  4  1  0
 17 12  1  0
M  END
$$$$
