
     RDKit          3D

 30 33  0  0  0  0  0  0  0  0999 V2000
  -15.5630   12.0010  -28.3083 C   0  0  0  0  0  0  0  0  0  0  0  0
  -14.8649   13.2025  -28.5860 O   0  0  0  0  0  0  0  0  0  0  0  0
  -15.2064   14.0620  -29.5972 C   0  0  0  0  0  0  0  0  0  0  0  0
  -16.5338   14.3605  -29.7928 C   0  0  0  0  0  0  0  0  0  0  0  0
  -16.8546   15.2243  -30.8127 C   0  0  0  0  0  0  0  0  0  0  0  0
  -15.8790   15.7889  -31.6316 C   0  0  0  0  0  0  0  0  0  0  0  0
  -16.2035   16.6642  -32.6534 C   0  0  0  0  0  0  0  0  0  0  0  0
  -15.2540   17.2430  -33.4738 C   0  0  0  0  0  0  0  0  0  0  0  0
  -15.6946   18.1080  -34.4644 O   0  0  0  0  0  0  0  0  0  0  0  0
  -16.8489   17.9587  -35.2246 C   0  0  0  0  0  0  0  0  0  0  0  0
  -16.4768   17.5379  -36.6028 C   0  0  0  0  0  0  0  0  0  0  0  0
  -17.5825   17.6044  -37.5639 C   0  0  0  0  0  0  0  0  0  0  0  0
  -18.0915   18.7044  -37.8772 O   0  0  0  0  0  0  0  0  0  0  0  0
  -18.0832   16.4553  -38.1427 O   0  0  0  0  0  0  0  0  0  0  0  0
  -15.5506   16.3365  -36.7378 C   0  0  0  0  0  0  0  0  0  0  0  0
  -15.0434   17.0224  -37.9382 N   0  0  0  0  0  0  0  0  0  0  0  0
  -14.6141   16.6697  -39.2180 C   0  0  0  0  0  0  0  0  0  0  0  0
  -14.3361   15.4914  -39.4888 O   0  0  0  0  0  0  0  0  0  0  0  0
  -14.4874   17.6902  -40.2648 C   0  0  0  0  0  0  0  0  0  0  0  0
  -15.5950   18.1380  -40.9491 C   0  0  0  0  0  0  0  0  0  0  0  0
  -15.4911   19.0951  -41.9339 C   0  0  0  0  0  0  0  0  0  0  0  0
  -14.2319   19.5879  -42.2079 C   0  0  0  0  0  0  0  0  0  0  0  0
  -14.0464   20.5367  -43.1715 F   0  0  0  0  0  0  0  0  0  0  0  0
  -13.1184   19.1477  -41.5301 C   0  0  0  0  0  0  0  0  0  0  0  0
  -13.2315   18.1909  -40.5468 C   0  0  0  0  0  0  0  0  0  0  0  0
  -15.2092   18.2509  -37.1362 C   0  0  0  0  0  0  0  0  0  0  0  0
  -13.9408   16.9184  -33.2446 C   0  0  0  0  0  0  0  0  0  0  0  0
  -13.6130   16.0457  -32.2267 C   0  0  0  0  0  0  0  0  0  0  0  0
  -14.5577   15.4619  -31.3994 C   0  0  0  0  0  0  0  0  0  0  0  0
  -14.2036   14.5975  -30.3835 C   0  0  0  0  0  0  0  0  0  0  0  0
  1  2  1  0
  2  3  1  0
  3  4  2  0
  4  5  1  0
  5  6  2  0
  6  7  1  0
  7  8  2  0
  8  9  1  0
  9 10  1  0
 10 11  1  0
 11 12  1  0
 12 13  2  0
 12 14  1  0
 11 15  1  0
 15 16  1  0
 16 17  1  0
 17 18  2  0
 17 19  1  0
 19 20  2  0
 20 21  1  0
 21 22  2  0
 22 23  1  0
 22 24  1  0
 24 25  2  0
 16 26  1  0
  8 27  1  0
 27 28  2  0
 28 29  1  0
 29 30  2  0
 30  3  1  0
 29  6  1  0
 26 11  1  0
 25 19  1  0
M  END
$$$$
