
     RDKit          3D

 22 24  0  0  0  0  0  0  0  0999 V2000
  -13.4628   12.9832  -31.9262 C   0  0  0  0  0  0  0  0  0  0  0  0
  -14.3180   14.1741  -31.6627 C   0  0  0  0  0  0  0  0  0  0  0  0
  -15.5884   14.1100  -31.1644 C   0  0  0  0  0  0  0  0  0  0  0  0
  -16.0602   15.3997  -31.0559 C   0  0  0  0  0  0  0  0  0  0  0  0
  -17.3571   15.7152  -30.5695 N   0  0  0  0  0  0  0  0  0  0  0  0
  -18.4885   15.0167  -31.1189 C   0  0  0  0  0  0  0  0  0  0  0  0
  -18.8205   13.8704  -30.7073 O   0  0  0  0  0  0  0  0  0  0  0  0
  -19.2834   15.5915  -32.1534 N   0  0  0  0  0  0  0  0  0  0  0  0
  -20.5379   15.0151  -32.5140 C   0  0  0  0  0  0  0  0  0  0  0  0
  -21.3284   14.3210  -31.6216 C   0  0  0  0  0  0  0  0  0  0  0  0
  -22.5490   13.7681  -31.9991 C   0  0  0  0  0  0  0  0  0  0  0  0
  -23.0061   13.9037  -33.2995 C   0  0  0  0  0  0  0  0  0  0  0  0
  -22.2136   14.5980  -34.1888 C   0  0  0  0  0  0  0  0  0  0  0  0
  -21.0053   15.1425  -33.8056 C   0  0  0  0  0  0  0  0  0  0  0  0
  -15.0822   16.2048  -31.4837 N   0  0  0  0  0  0  0  0  0  0  0  0
  -15.1826   17.6248  -31.5274 C   0  0  0  0  0  0  0  0  0  0  0  0
  -15.8409   18.3256  -30.5430 C   0  0  0  0  0  0  0  0  0  0  0  0
  -15.9377   19.6964  -30.5855 C   0  0  0  0  0  0  0  0  0  0  0  0
  -15.3668   20.4142  -31.6348 C   0  0  0  0  0  0  0  0  0  0  0  0
  -14.7078   19.7141  -32.6203 C   0  0  0  0  0  0  0  0  0  0  0  0
  -14.6207   18.3398  -32.5613 C   0  0  0  0  0  0  0  0  0  0  0  0
  -14.0510   15.4745  -31.8425 N   0  0  0  0  0  0  0  0  0  0  0  0
  1  2  1  0
  2  3  1  0
  3  4  2  0
  4  5  1  0
  5  6  1  0
  6  7  2  0
  6  8  1  0
  8  9  1  0
  9 10  2  0
 10 11  1  0
 11 12  2  0
 12 13  1  0
 13 14  2  0
  4 15  1  0
 15 16  1  0
 16 17  2  0
 17 18  1  0
 18 19  2  0
 19 20  1  0
 20 21  2  0
 15 22  1  0
 22  2  2  0
 14  9  1  0
 21 16  1  0
M  END
$$$$
