
     RDKit          3D

 24 26  0  0  0  0  0  0  0  0999 V2000
  -30.2743   15.4863  -25.1122 C   0  0  0  0  0  0  0  0  0  0  0  0
  -29.4756   15.4404  -26.2716 O   0  0  0  0  0  0  0  0  0  0  0  0
  -29.0597   16.6249  -26.8750 C   0  0  0  0  0  0  0  0  0  0  0  0
  -28.9695   17.8175  -26.1987 C   0  0  0  0  0  0  0  0  0  0  0  0
  -28.5515   18.9768  -26.8320 C   0  0  0  0  0  0  0  0  0  0  0  0
  -28.4584   20.1442  -26.1800 N   0  0  0  0  0  0  0  0  0  0  0  0
  -28.0470   21.2420  -26.8321 C   0  0  0  0  0  0  0  0  0  0  0  0
  -27.7296   21.1781  -28.1284 N   0  0  0  0  0  0  0  0  0  0  0  0
  -27.7910   20.0446  -28.8751 C   0  0  0  0  0  0  0  0  0  0  0  0
  -27.4319   20.0685  -30.2417 N   0  0  0  0  0  0  0  0  0  0  0  0
  -27.0355   21.2630  -30.8788 C   0  0  0  0  0  0  0  0  0  0  0  0
  -25.9806   21.2804  -31.7982 C   0  0  0  0  0  0  0  0  0  0  0  0
  -25.5411   22.4094  -32.4237 C   0  0  0  0  0  0  0  0  0  0  0  0
  -24.0973   22.4108  -33.6797 Br  0  0  0  0  0  0  0  0  0  0  0  0
  -26.1924   23.6013  -32.1166 C   0  0  0  0  0  0  0  0  0  0  0  0
  -25.7290   24.7548  -32.7697 O   0  0  0  0  0  0  0  0  0  0  0  0
  -27.2269   23.6376  -31.2257 C   0  0  0  0  0  0  0  0  0  0  0  0
  -28.0740   25.2836  -30.8424 Br  0  0  0  0  0  0  0  0  0  0  0  0
  -27.6391   22.4585  -30.6123 C   0  0  0  0  0  0  0  0  0  0  0  0
  -28.2187   18.9223  -28.1794 C   0  0  0  0  0  0  0  0  0  0  0  0
  -28.3069   17.7312  -28.8614 C   0  0  0  0  0  0  0  0  0  0  0  0
  -28.7286   16.5734  -28.2126 C   0  0  0  0  0  0  0  0  0  0  0  0
  -28.8136   15.3871  -28.9054 O   0  0  0  0  0  0  0  0  0  0  0  0
  -29.1849   15.2809  -30.2533 C   0  0  0  0  0  0  0  0  0  0  0  0
  1  2  1  0
  2  3  1  0
  3  4  2  0
  4  5  1  0
  5  6  2  0
  6  7  1  0
  7  8  2  0
  8  9  1  0
  9 10  1  0
 10 11  1  0
 11 12  2  0
 12 13  1  0
 13 14  1  0
 13 15  2  0
 15 16  1  0
 15 17  1  0
 17 18  1  0
 17 19  2  0
  9 20  2  0
 20 21  1  0
 21 22  2  0
 22 23  1  0
 23 24  1  0
 22  3  1  0
 20  5  1  0
 19 11  1  0
M  END
$$$$
