
     RDKit          3D

 35 38  0  0  0  0  0  0  0  0999 V2000
  -20.1932    0.0204  -35.2702 C   0  0  0  0  0  0  0  0  0  0  0  0
  -18.9318    0.8270  -35.3495 C   0  0  0  0  0  0  0  0  0  0  0  0
  -19.2945    2.2815  -35.0664 C   0  0  0  0  0  0  0  0  0  0  0  0
  -18.3812    0.6970  -36.7540 C   0  0  0  0  0  0  0  0  0  0  0  0
  -17.8512    0.3730  -34.4245 C   0  0  0  0  0  0  0  0  0  0  0  0
  -16.7595    0.4391  -34.0836 N   0  0  0  0  0  0  0  0  0  0  0  0
  -16.1103   -0.1872  -33.1239 C   0  0  0  0  0  0  0  0  0  0  0  0
  -14.6653    0.0483  -32.8405 C   0  0  0  0  0  0  0  0  0  0  0  0
  -14.3172    0.6894  -31.6775 C   0  0  0  0  0  0  0  0  0  0  0  0
  -13.0008    0.9253  -31.3774 C   0  0  0  0  0  0  0  0  0  0  0  0
  -12.0389    0.4991  -32.2785 C   0  0  0  0  0  0  0  0  0  0  0  0
  -12.3212   -0.1446  -33.4544 C   0  0  0  0  0  0  0  0  0  0  0  0
  -11.3578   -0.6020  -34.3735 N   0  0  0  0  0  0  0  0  0  0  0  0
   -9.8132   -1.2390  -34.0443 S   0  0  0  0  0  6  0  0  0  0  0  0
   -9.3569   -2.0047  -35.2818 O   0  0  0  0  0  0  0  0  0  0  0  0
   -9.8483   -2.2640  -32.9362 O   0  0  0  0  0  0  0  0  0  0  0  0
   -8.5794   -0.0645  -33.6975 C   0  0  0  0  0  0  0  0  0  0  0  0
   -7.7681   -0.1598  -32.5658 C   0  0  0  0  0  0  0  0  0  0  0  0
   -7.9971   -1.1918  -31.7178 F   0  0  0  0  0  0  0  0  0  0  0  0
   -6.7819    0.7652  -32.3371 C   0  0  0  0  0  0  0  0  0  0  0  0
   -6.5430    1.8202  -33.1974 C   0  0  0  0  0  0  0  0  0  0  0  0
   -7.3304    1.9316  -34.3163 C   0  0  0  0  0  0  0  0  0  0  0  0
   -8.3156    1.0029  -34.5398 C   0  0  0  0  0  0  0  0  0  0  0  0
   -9.0942    1.1098  -35.6426 F   0  0  0  0  0  0  0  0  0  0  0  0
  -13.6879   -0.3562  -33.7033 C   0  0  0  0  0  0  0  0  0  0  0  0
  -14.0461   -0.9834  -34.8395 F   0  0  0  0  0  0  0  0  0  0  0  0
  -16.8163   -1.0666  -32.3928 C   0  0  0  0  0  0  0  0  0  0  0  0
  -16.5600   -1.9575  -31.2795 C   0  0  0  0  0  0  0  0  0  0  0  0
  -15.2833   -2.4849  -31.0424 C   0  0  0  0  0  0  0  0  0  0  0  0
  -15.0450   -3.3284  -29.9884 C   0  0  0  0  0  0  0  0  0  0  0  0
  -16.0632   -3.6396  -29.1856 N   0  0  0  0  0  0  0  0  0  0  0  0
  -17.3023   -3.1595  -29.3724 C   0  0  0  0  0  0  0  0  0  0  0  0
  -18.3295   -3.5439  -28.4674 N   0  0  0  0  0  0  0  0  0  0  0  0
  -17.5128   -2.3364  -30.4091 N   0  0  0  0  0  0  0  0  0  0  0  0
  -18.4989   -0.9161  -33.2055 S   0  0  0  0  0  0  0  0  0  0  0  0
  1  2  1  0
  2  3  1  0
  2  4  1  0
  2  5  1  0
  5  6  2  0
  6  7  1  0
  7  8  1  0
  8  9  2  0
  9 10  1  0
 10 11  2  0
 11 12  1  0
 12 13  1  0
 13 14  1  0
 14 15  2  0
 14 16  2  0
 14 17  1  0
 17 18  2  0
 18 19  1  0
 18 20  1  0
 20 21  2  0
 21 22  1  0
 22 23  2  0
 23 24  1  0
 12 25  2  0
 25 26  1  0
  7 27  2  0
 27 28  1  0
 28 29  2  0
 29 30  1  0
 30 31  2  0
 31 32  1  0
 32 33  1  0
 32 34  2  0
 27 35  1  0
 35  5  1  0
 25  8  1  0
 34 28  1  0
 23 17  1  0
M  END
$$$$
