
     RDKit          3D

 15 16  0  0  0  0  0  0  0  0999 V2000
  -20.6616   34.9415  -22.6380 C   0  0  0  0  0  0  0  0  0  0  0  0
  -19.4287   35.7427  -22.3540 C   0  0  0  0  0  0  0  0  0  0  0  0
  -18.3136   35.0722  -21.9062 C   0  0  0  0  0  0  0  0  0  0  0  0
  -17.1814   35.8145  -21.6478 C   0  0  0  0  0  0  0  0  0  0  0  0
  -17.1780   37.1871  -21.8358 C   0  0  0  0  0  0  0  0  0  0  0  0
  -18.3195   37.8303  -22.2881 C   0  0  0  0  0  0  0  0  0  0  0  0
  -18.2612   39.2776  -22.4610 C   0  0  0  0  0  0  0  0  0  0  0  0
  -17.2134   39.6543  -23.4860 C   0  0  0  0  0  0  0  0  0  0  0  0
  -17.9540   40.0537  -21.2367 C   0  0  0  0  0  0  0  0  0  0  0  0
  -16.9414   40.9698  -21.0828 C   0  0  0  0  0  0  0  0  0  0  0  0
  -17.0146   41.4477  -19.8370 N   0  0  0  0  0  0  0  0  0  0  0  0
  -18.0491   40.8382  -19.2407 C   0  0  0  0  0  0  0  0  0  0  0  0
  -18.6320   39.9816  -20.0900 N   0  0  0  0  0  0  0  0  0  0  0  0
  -19.4606   37.1239  -22.5545 C   0  0  0  0  0  0  0  0  0  0  0  0
  -20.7128   37.7342  -23.0439 C   0  0  0  0  0  0  0  0  0  0  0  0
  1  2  1  0
  2  3  2  0
  3  4  1  0
  4  5  2  0
  5  6  1  0
  6  7  1  0
  7  8  1  0
  7  9  1  0
  9 10  2  0
 10 11  1  0
 11 12  2  0
 12 13  1  0
  6 14  2  0
 14 15  1  0
 14  2  1  0
 13  9  1  0
M  END
$$$$
