
     RDKit          3D

 25 24  0  0  0  0  0  0  0  0999 V2000
  -16.9012   34.1148  -23.2880 C   0  0  0  0  0  0  0  0  0  0  0  0
  -18.3551   33.8402  -23.1201 C   0  0  1  0  0  0  0  0  0  0  0  0
  -18.4704   32.5104  -22.3601 C   0  0  0  0  0  0  0  0  0  0  0  0
  -19.4868   32.6029  -21.3375 N   0  0  0  0  0  0  0  0  0  0  0  0
  -20.7730   32.5860  -21.9710 C   0  0  0  0  0  0  0  0  0  0  0  0
  -21.3754   33.9666  -22.0530 C   0  0  0  0  0  0  0  0  0  0  0  0
  -20.5134   34.8930  -22.9037 C   0  0  0  0  0  0  0  0  0  0  0  0
  -19.1539   34.8479  -22.6021 N   0  0  0  0  0  0  0  0  0  0  0  0
  -18.4614   36.1667  -21.7696 S   0  0  0  0  0  6  0  0  0  0  0  0
  -17.0299   35.8589  -21.4947 O   0  0  0  0  0  0  0  0  0  0  0  0
  -19.3166   36.2480  -20.5150 O   0  0  0  0  0  0  0  0  0  0  0  0
  -18.6364   37.5564  -22.8069 C   0  0  0  0  0  0  0  0  0  0  0  0
  -19.1481   37.4267  -24.0956 C   0  0  0  0  0  0  0  0  0  0  0  0
  -19.2621   38.5253  -24.8872 C   0  0  0  0  0  0  0  0  0  0  0  0
  -18.8948   39.7845  -24.4865 C   0  0  0  0  0  0  0  0  0  0  0  0
  -18.3864   39.9047  -23.2057 C   0  0  0  0  0  0  0  0  0  0  0  0
  -17.9918   41.1557  -22.7410 C   0  0  0  0  0  0  0  0  0  0  0  0
  -17.4942   41.2871  -21.5039 N   0  0  0  0  0  0  0  0  0  0  0  0
  -17.3603   40.2355  -20.6824 C   0  0  0  0  0  0  0  0  0  0  0  0
  -17.7363   38.9637  -21.0889 C   0  0  0  0  0  0  0  0  0  0  0  0
  -17.5897   37.9132  -20.2564 F   0  0  0  0  0  0  0  0  0  0  0  0
  -18.2477   38.8019  -22.3467 C   0  0  0  0  0  0  0  0  0  0  0  0
  -18.8017   36.7196  -22.6451 Cl  0  0  0  0  0  0  0  0  0  0  0  0
  -18.9151   36.0553  -22.2468 O   0  0  0  0  0  0  0  0  0  0  0  0
  -18.9155   36.0544  -22.2428 O   0  0  0  0  0  0  0  0  0  0  0  0
  2  1  1  1
  2  3  1  0
  3  4  1  0
  4  5  1  0
  5  6  1  0
  6  7  1  0
  7  8  1  0
  8  9  1  0
  9 10  2  0
  9 11  2  0
  9 12  1  0
 12 13  2  0
 13 14  1  0
 14 15  2  0
 15 16  1  0
 16 17  2  0
 17 18  1  0
 18 19  2  0
 19 20  1  0
 20 21  1  0
 20 22  2  0
  8  2  1  0
 22 12  1  0
 22 16  1  0
M  END
$$$$
