
     RDKit          3D

 33 36  0  0  0  0  0  0  0  0999 V2000
  -17.5219   13.1018  -32.2962 C   0  0  0  0  0  0  0  0  0  0  0  0
  -17.0494   14.1084  -33.3078 C   0  0  0  0  0  0  0  0  0  0  0  0
  -16.8138   15.4870  -32.6557 C   0  0  0  0  0  0  0  0  0  0  0  0
  -16.3673   16.5625  -33.9921 S   0  0  0  0  0  6  0  0  0  0  0  0
  -14.9581   16.2501  -34.4430 O   0  0  0  0  0  0  0  0  0  0  0  0
  -17.3149   16.2024  -35.1332 O   0  0  0  0  0  0  0  0  0  0  0  0
  -16.5714   18.2101  -33.6382 N   0  0  0  0  0  0  0  0  0  0  0  0
  -17.5504   18.7953  -32.8000 C   0  0  0  0  0  0  0  0  0  0  0  0
  -17.4696   18.8524  -31.4352 C   0  0  0  0  0  0  0  0  0  0  0  0
  -18.5128   19.4365  -30.7116 C   0  0  0  0  0  0  0  0  0  0  0  0
  -19.6337   19.9656  -31.2965 C   0  0  0  0  0  0  0  0  0  0  0  0
  -20.6192   20.5226  -30.5415 F   0  0  0  0  0  0  0  0  0  0  0  0
  -19.7218   19.9099  -32.6912 C   0  0  0  0  0  0  0  0  0  0  0  0
  -20.9216   20.4587  -33.3016 C   0  0  0  0  0  0  0  0  0  0  0  0
  -21.5207   19.7695  -34.1964 O   0  0  0  0  0  0  0  0  0  0  0  0
  -21.4782   21.7469  -32.9510 C   0  0  0  0  0  0  0  0  0  0  0  0
  -21.3411   22.5077  -31.8115 C   0  0  0  0  0  0  0  0  0  0  0  0
  -22.0699   23.6331  -31.9158 N   0  0  0  0  0  0  0  0  0  0  0  0
  -22.7010   23.6525  -33.1051 C   0  0  0  0  0  0  0  0  0  0  0  0
  -23.5429   24.5349  -33.7050 N   0  0  0  0  0  0  0  0  0  0  0  0
  -24.0128   24.2505  -34.9337 C   0  0  0  0  0  0  0  0  0  0  0  0
  -23.6742   23.0976  -35.6106 C   0  0  0  0  0  0  0  0  0  0  0  0
  -24.1991   22.8156  -36.9416 C   0  0  0  0  0  0  0  0  0  0  0  0
  -23.8613   23.6212  -38.0064 C   0  0  0  0  0  0  0  0  0  0  0  0
  -24.3324   23.3923  -39.2864 C   0  0  0  0  0  0  0  0  0  0  0  0
  -25.1793   22.3200  -39.5451 C   0  0  0  0  0  0  0  0  0  0  0  0
  -25.7739   22.0329  -41.1667 Cl  0  0  0  0  0  0  0  0  0  0  0  0
  -25.5186   21.5133  -38.4831 C   0  0  0  0  0  0  0  0  0  0  0  0
  -25.0394   21.7507  -37.1952 C   0  0  0  0  0  0  0  0  0  0  0  0
  -22.8334   22.2010  -35.0292 C   0  0  0  0  0  0  0  0  0  0  0  0
  -22.3428   22.4903  -33.7550 C   0  0  0  0  0  0  0  0  0  0  0  0
  -18.6935   19.3337  -33.4033 C   0  0  0  0  0  0  0  0  0  0  0  0
  -18.7582   19.2472  -34.7546 F   0  0  0  0  0  0  0  0  0  0  0  0
  1  2  1  0
  2  3  1  0
  3  4  1  0
  4  5  2  0
  4  6  2  0
  4  7  1  0
  7  8  1  0
  8  9  2  0
  9 10  1  0
 10 11  2  0
 11 12  1  0
 11 13  1  0
 13 14  1  0
 14 15  2  0
 14 16  1  0
 16 17  2  0
 17 18  1  0
 18 19  1  0
 19 20  2  0
 20 21  1  0
 21 22  2  0
 22 23  1  0
 23 24  2  0
 24 25  1  0
 25 26  2  0
 26 27  1  0
 26 28  1  0
 28 29  2  0
 22 30  1  0
 30 31  2  0
 13 32  2  0
 32 33  1  0
 32  8  1  0
 31 16  1  0
 31 19  1  0
 29 23  1  0
M  END
$$$$
