
     RDKit          3D

 10 10  0  0  0  0  0  0  0  0999 V2000
  -16.4265   38.0366  -21.7716 C   0  0  0  0  0  0  0  0  0  0  0  0
  -17.2502   37.1799  -21.9631 C   0  0  0  0  0  0  0  0  0  0  0  0
  -18.2535   36.1721  -22.1975 C   0  0  0  0  0  0  0  0  0  0  0  0
  -19.5775   36.5048  -22.4257 C   0  0  0  0  0  0  0  0  0  0  0  0
  -20.4794   35.5309  -22.6397 N   0  0  0  0  0  0  0  0  0  0  0  0
  -20.1723   34.2212  -22.6469 C   0  0  0  0  0  0  0  0  0  0  0  0
  -21.0439   33.3268  -22.8514 O   0  0  0  0  0  0  0  0  0  0  0  0
  -18.8898   33.8875  -22.4263 N   0  0  0  0  0  0  0  0  0  0  0  0
  -17.9457   34.8261  -22.2063 C   0  0  0  0  0  0  0  0  0  0  0  0
  -16.7420   34.4677  -22.0015 O   0  0  0  0  0  0  0  0  0  0  0  0
  1  2  3  0
  2  3  1  0
  3  4  2  0
  4  5  1  0
  5  6  1  0
  6  7  2  0
  6  8  1  0
  8  9  1  0
  9 10  2  0
  9  3  1  0
M  END
$$$$
