
     RDKit          3D

 21 20  0  0  0  0  0  0  0  0999 V2000
  -13.7401   11.5933  -27.9820 C   0  0  0  0  0  0  0  0  0  0  0  0
  -14.1861   12.1165  -29.2990 C   0  0  0  0  0  0  0  0  0  0  0  0
  -15.3754   13.0081  -29.3126 C   0  0  0  0  0  0  0  0  0  0  0  0
  -15.8078   13.5999  -30.5890 C   0  0  0  0  0  0  0  0  0  0  0  0
  -16.1959   15.0329  -30.5481 C   0  0  0  0  0  0  0  0  0  0  0  0
  -16.6796   15.5227  -31.9073 C   0  0  0  0  0  0  0  0  0  0  0  0
  -15.6075   16.1218  -32.7474 C   0  0  0  0  0  0  0  0  0  0  0  0
  -16.1165   16.6043  -34.0924 C   0  0  0  0  0  0  0  0  0  0  0  0
  -15.1399   17.4605  -34.8117 C   0  0  0  0  0  0  0  0  0  0  0  0
  -14.5327   16.6827  -35.9592 C   0  0  0  0  0  0  0  0  0  0  0  0
  -13.5315   17.4723  -36.7243 C   0  0  0  0  0  0  0  0  0  0  0  0
  -13.8444   17.5337  -38.1768 C   0  0  0  0  0  0  0  0  0  0  0  0
  -12.6240   17.4648  -39.0192 C   0  0  0  0  0  0  0  0  0  0  0  0
  -12.6483   16.3006  -39.9931 C   0  0  0  0  0  0  0  0  0  0  0  0
  -13.0566   16.7304  -41.3813 C   0  0  0  0  0  0  0  0  0  0  0  0
  -11.9422   17.5117  -42.0220 C   0  0  0  0  0  0  0  0  0  0  0  0
  -11.1206   18.1783  -41.3473 O   0  0  0  0  0  0  0  0  0  0  0  0
  -11.7966   17.5087  -43.4363 N   0  0  0  0  0  0  0  0  0  0  0  0
  -12.7254   18.2077  -44.3028 C   0  0  0  0  0  0  0  0  0  0  0  0
  -11.9593   19.1343  -45.2150 C   0  0  0  0  0  0  0  0  0  0  0  0
  -12.7925   20.1631  -45.6269 O   0  0  0  0  0  0  0  0  0  0  0  0
  1  2  1  0
  2  3  1  0
  3  4  1  0
  4  5  1  0
  5  6  1  0
  6  7  1  0
  7  8  1  0
  8  9  1  0
  9 10  1  0
 10 11  1  0
 11 12  1  0
 12 13  1  0
 13 14  1  0
 14 15  1  0
 15 16  1  0
 16 17  2  0
 16 18  1  0
 18 19  1  0
 19 20  1  0
 20 21  1  0
M  END
$$$$
