
     RDKit          3D

 32 34  0  0  0  0  0  0  0  0999 V2000
  -29.9273   24.1759  -28.0087 N   0  0  0  0  0  0  0  0  0  0  0  0
  -29.5789   22.8930  -27.5217 C   0  0  0  0  0  0  0  0  0  0  0  0
  -28.9157   22.7448  -26.3385 N   0  0  0  0  0  0  0  0  0  0  0  0
  -28.5854   21.5473  -25.8722 C   0  0  0  0  0  0  0  0  0  0  0  0
  -27.8863   21.3814  -24.6272 N   0  0  0  0  0  0  0  0  0  0  0  0
  -28.9053   20.4083  -26.5759 C   0  0  0  0  0  0  0  0  0  0  0  0
  -28.5641   19.1791  -26.0916 N   0  0  0  0  0  0  0  0  0  0  0  0
  -28.8783   18.0729  -26.7793 C   0  0  0  0  0  0  0  0  0  0  0  0
  -28.5133   16.7475  -26.2577 C   0  0  0  0  0  0  0  0  0  0  0  0
  -29.0588   15.7436  -27.1579 N   0  0  0  0  0  0  0  0  0  0  0  0
  -30.3443   15.1399  -26.8824 C   0  0  0  0  0  0  0  0  0  0  0  0
  -31.1921   14.8119  -27.9184 C   0  0  0  0  0  0  0  0  0  0  0  0
  -32.4060   14.2401  -27.6497 C   0  0  0  0  0  0  0  0  0  0  0  0
  -32.8443   13.9640  -26.3525 C   0  0  0  0  0  0  0  0  0  0  0  0
  -34.1238   13.3546  -26.0962 C   0  0  0  0  0  0  0  0  0  0  0  0
  -35.0533   13.3465  -26.9765 O   0  0  0  0  0  0  0  0  0  0  0  0
  -34.3834   12.7426  -24.8456 N   0  0  0  0  0  0  0  0  0  0  0  0
  -35.6742   12.1053  -24.5798 C   0  0  0  0  0  0  0  0  0  0  0  0
  -36.5526   13.1661  -23.9400 C   0  0  0  0  0  0  0  0  0  0  0  0
  -37.9666   12.6546  -23.9137 C   0  0  0  0  0  0  0  0  0  0  0  0
  -38.3210   12.0124  -22.6511 C   0  0  0  0  0  0  0  0  0  0  0  0
  -37.8320   12.4376  -21.5557 O   0  0  0  0  0  0  0  0  0  0  0  0
  -39.1776   10.9369  -22.5528 O   0  0  0  0  0  0  0  0  0  0  0  0
  -35.4414   11.0173  -23.6056 C   0  0  0  0  0  0  0  0  0  0  0  0
  -35.6649   11.2334  -22.3931 O   0  0  0  0  0  0  0  0  0  0  0  0
  -34.9854    9.7714  -23.9876 O   0  0  0  0  0  0  0  0  0  0  0  0
  -31.9630   14.3100  -25.3569 C   0  0  0  0  0  0  0  0  0  0  0  0
  -30.7376   14.8855  -25.5994 C   0  0  0  0  0  0  0  0  0  0  0  0
  -29.5452   18.1814  -27.9739 C   0  0  0  0  0  0  0  0  0  0  0  0
  -29.8948   19.4053  -28.4736 N   0  0  0  0  0  0  0  0  0  0  0  0
  -29.5760   20.5246  -27.7762 C   0  0  0  0  0  0  0  0  0  0  0  0
  -29.8775   21.7590  -28.1863 N   0  0  0  0  0  0  0  0  0  0  0  0
  1  2  1  0
  2  3  2  0
  3  4  1  0
  4  5  1  0
  4  6  2  0
  6  7  1  0
  7  8  2  0
  8  9  1  0
  9 10  1  0
 10 11  1  0
 11 12  2  0
 12 13  1  0
 13 14  2  0
 14 15  1  0
 15 16  2  0
 15 17  1  0
 17 18  1  0
 18 19  1  0
 19 20  1  0
 20 21  1  0
 21 22  2  0
 21 23  1  0
 18 24  1  0
 24 25  2  0
 24 26  1  0
 14 27  1  0
 27 28  2  0
  8 29  1  0
 29 30  2  0
 30 31  1  0
 31 32  2  0
 32  2  1  0
 31  6  1  0
 28 11  1  0
M  END
$$$$
