
     RDKit          3D

 28 30  0  0  0  0  0  0  0  0999 V2000
  -29.1795   23.9622  -29.6644 C   0  0  0  0  0  0  0  0  0  0  0  0
  -30.0505   22.8998  -29.2182 N   0  0  0  0  0  0  0  0  0  0  0  0
  -29.4562   21.6674  -28.8299 C   0  0  0  0  0  0  0  0  0  0  0  0
  -28.1136   21.5243  -28.9000 N   0  0  0  0  0  0  0  0  0  0  0  0
  -27.5310   20.3727  -28.5406 C   0  0  0  0  0  0  0  0  0  0  0  0
  -26.1499   20.1508  -28.5808 N   0  0  0  0  0  0  0  0  0  0  0  0
  -25.6322   18.8056  -28.4679 C   0  0  0  0  0  0  0  0  0  0  0  0
  -24.9917   18.3986  -29.7601 C   0  0  0  0  0  0  0  0  0  0  0  0
  -24.6281   19.3271  -30.7102 C   0  0  0  0  0  0  0  0  0  0  0  0
  -24.0350   18.9625  -31.9007 C   0  0  0  0  0  0  0  0  0  0  0  0
  -23.7774   17.6290  -32.1944 C   0  0  0  0  0  0  0  0  0  0  0  0
  -23.1640   17.2603  -33.4248 N   0  0  0  0  0  0  0  0  0  0  0  0
  -21.8193   16.2075  -33.4880 S   0  0  0  0  0  6  0  0  0  0  0  0
  -21.3427   15.8409  -31.7943 C   0  0  0  0  0  0  0  0  0  0  0  0
  -20.6371   16.8211  -34.2024 O   0  0  0  0  0  0  0  0  0  0  0  0
  -22.2020   14.8986  -34.1129 O   0  0  0  0  0  0  0  0  0  0  0  0
  -24.1422   16.7021  -31.2425 C   0  0  0  0  0  0  0  0  0  0  0  0
  -24.7439   17.0724  -30.0342 C   0  0  0  0  0  0  0  0  0  0  0  0
  -25.1740   15.8425  -28.8854 Cl  0  0  0  0  0  0  0  0  0  0  0  0
  -28.3525   19.3306  -28.0931 C   0  0  0  0  0  0  0  0  0  0  0  0
  -29.7153   19.4722  -28.0206 C   0  0  0  0  0  0  0  0  0  0  0  0
  -30.5601   18.3693  -27.5454 C   0  0  0  0  0  0  0  0  0  0  0  0
  -29.9993   17.1227  -27.3280 C   0  0  0  0  0  0  0  0  0  0  0  0
  -30.8037   16.0759  -26.8769 C   0  0  0  0  0  0  0  0  0  0  0  0
  -32.1492   16.3024  -26.6545 C   0  0  0  0  0  0  0  0  0  0  0  0
  -32.6817   17.5394  -26.8755 C   0  0  0  0  0  0  0  0  0  0  0  0
  -31.8703   18.5298  -27.3127 N   0  0  0  0  0  0  0  0  0  0  0  0
  -30.2461   20.6409  -28.3910 N   0  0  0  0  0  0  0  0  0  0  0  0
  1  2  1  0
  2  3  1  0
  3  4  2  0
  4  5  1  0
  5  6  1  0
  6  7  1  0
  7  8  1  0
  8  9  2  0
  9 10  1  0
 10 11  2  0
 11 12  1  0
 12 13  1  0
 13 14  1  0
 13 15  2  0
 13 16  2  0
 11 17  1  0
 17 18  2  0
 18 19  1  0
  5 20  2  0
 20 21  1  0
 21 22  1  0
 22 23  2  0
 23 24  1  0
 24 25  2  0
 25 26  1  0
 26 27  2  0
 21 28  2  0
 28  3  1  0
 18  8  1  0
 27 22  1  0
M  END
$$$$
