
     RDKit          3D

 23 24  0  0  0  0  0  0  0  0999 V2000
  -16.2293   15.6515  -28.4478 N   0  0  0  0  0  0  0  0  0  0  0  0
  -15.9530   14.6869  -29.0964 C   0  0  0  0  0  0  0  0  0  0  0  0
  -15.6406   13.5115  -29.8717 C   0  0  0  0  0  0  0  0  0  0  0  0
  -14.6519   13.8598  -30.9299 C   0  0  0  0  0  0  0  0  0  0  0  0
  -13.3699   13.4024  -30.8010 C   0  0  0  0  0  0  0  0  0  0  0  0
  -12.4086   13.7046  -31.7345 C   0  0  0  0  0  0  0  0  0  0  0  0
  -12.7255   14.4870  -32.8357 C   0  0  0  0  0  0  0  0  0  0  0  0
  -14.0269   14.9332  -32.9380 C   0  0  0  0  0  0  0  0  0  0  0  0
  -14.9936   14.6359  -32.0104 C   0  0  0  0  0  0  0  0  0  0  0  0
  -16.3605   15.0720  -32.1008 C   0  0  0  0  0  0  0  0  0  0  0  0
  -17.5050   15.4572  -32.1836 C   0  0  0  0  0  0  0  0  0  0  0  0
  -18.8684   15.9079  -32.3057 C   0  0  0  0  0  0  0  0  0  0  0  0
  -19.9109   15.1555  -31.7712 C   0  0  0  0  0  0  0  0  0  0  0  0
  -21.2129   15.5916  -31.9014 C   0  0  0  0  0  0  0  0  0  0  0  0
  -21.5241   16.7819  -32.5622 C   0  0  0  0  0  0  0  0  0  0  0  0
  -22.9234   17.1819  -32.6851 C   0  0  0  0  0  0  0  0  0  0  0  0
  -23.6605   16.6642  -33.8681 C   0  0  0  0  0  0  0  0  0  0  0  0
  -23.8122   15.2165  -33.9653 C   0  0  0  0  0  0  0  0  0  0  0  0
  -24.5813   14.5434  -33.2112 O   0  0  0  0  0  0  0  0  0  0  0  0
  -23.1065   14.4783  -34.9112 O   0  0  0  0  0  0  0  0  0  0  0  0
  -20.5036   17.5372  -33.0953 C   0  0  0  0  0  0  0  0  0  0  0  0
  -20.7447   18.7241  -33.7482 F   0  0  0  0  0  0  0  0  0  0  0  0
  -19.2109   17.0748  -32.9492 C   0  0  0  0  0  0  0  0  0  0  0  0
  1  2  3  0
  2  3  1  0
  3  4  1  0
  4  5  2  0
  5  6  1  0
  6  7  2  0
  7  8  1  0
  8  9  2  0
  9 10  1  0
 10 11  3  0
 11 12  1  0
 12 13  2  0
 13 14  1  0
 14 15  2  0
 15 16  1  0
 16 17  1  0
 17 18  1  0
 18 19  2  0
 18 20  1  0
 15 21  1  0
 21 22  1  0
 21 23  2  0
  9  4  1  0
 23 12  1  0
M  END
$$$$
