
     RDKit          3D

 26 27  0  0  0  0  0  0  0  0999 V2000
  -22.9684   15.3106  -35.6723 C   0  0  0  0  0  0  0  0  0  0  0  0
  -22.6921   14.3634  -34.4972 C   0  0  0  0  0  0  0  0  0  0  0  0
  -23.9206   14.1942  -33.6531 C   0  0  0  0  0  0  0  0  0  0  0  0
  -22.3569   13.0145  -35.1056 C   0  0  0  0  0  0  0  0  0  0  0  0
  -21.6233   14.9217  -33.7792 O   0  0  0  0  0  0  0  0  0  0  0  0
  -21.4646   16.2524  -33.5023 C   0  0  0  0  0  0  0  0  0  0  0  0
  -22.4676   16.8954  -33.1001 O   0  0  0  0  0  0  0  0  0  0  0  0
  -20.1535   16.9700  -33.6574 C   0  0  0  0  0  0  0  0  0  0  0  0
  -20.0662   18.1576  -32.9222 N   0  0  0  0  0  0  0  0  0  0  0  0
  -19.4932   18.1528  -31.6378 C   0  0  0  0  0  0  0  0  0  0  0  0
  -18.0312   17.9979  -31.6184 C   0  0  0  0  0  0  0  0  0  0  0  0
  -17.3977   16.8556  -32.0264 C   0  0  0  0  0  0  0  0  0  0  0  0
  -16.0155   16.7305  -32.0032 C   0  0  0  0  0  0  0  0  0  0  0  0
  -15.2312   17.7678  -31.5626 C   0  0  0  0  0  0  0  0  0  0  0  0
  -13.4904   17.6534  -31.5184 Cl  0  0  0  0  0  0  0  0  0  0  0  0
  -15.8655   18.9369  -31.1442 C   0  0  0  0  0  0  0  0  0  0  0  0
  -17.2272   19.0258  -31.1803 C   0  0  0  0  0  0  0  0  0  0  0  0
  -20.5525   19.3600  -33.4657 C   0  0  0  0  0  0  0  0  0  0  0  0
  -21.5703   19.9386  -32.5333 C   0  0  0  0  0  0  0  0  0  0  0  0
  -21.4376   20.7832  -31.4811 C   0  0  0  0  0  0  0  0  0  0  0  0
  -22.5635   21.1332  -30.8247 C   0  0  0  0  0  0  0  0  0  0  0  0
  -23.7429   20.6610  -31.2067 C   0  0  0  0  0  0  0  0  0  0  0  0
  -25.0619   20.8415  -30.7297 N   0  0  0  0  0  4  0  0  0  0  0  0
  -25.2694   21.6269  -29.8139 O   0  0  0  0  0  0  0  0  0  0  0  0
  -26.0822   20.1456  -31.2882 O   0  0  0  0  0  1  0  0  0  0  0  0
  -23.2986   19.6290  -32.6053 S   0  0  0  0  0  0  0  0  0  0  0  0
  1  2  1  0
  2  3  1  0
  2  4  1  0
  2  5  1  0
  5  6  1  0
  6  7  2  0
  6  8  1  0
  8  9  1  0
  9 10  1  0
 10 11  1  0
 11 12  2  0
 12 13  1  0
 13 14  2  0
 14 15  1  0
 14 16  1  0
 16 17  2  0
  9 18  1  0
 18 19  1  0
 19 20  2  0
 20 21  1  0
 21 22  2  0
 22 23  1  0
 23 24  2  0
 23 25  1  0
 22 26  1  0
 17 11  1  0
 26 19  1  0
M  CHG  2  23   1  25  -1
M  END
$$$$
