
     RDKit          3D

 34 37  0  0  0  0  0  0  0  0999 V2000
  -27.0125   14.4862  -25.8004 O   0  0  0  0  0  0  0  0  0  0  0  0
  -27.0865   15.7267  -25.7166 C   0  0  0  0  0  0  0  0  0  0  0  0
  -27.8480   16.3654  -26.7015 O   0  0  0  0  0  0  0  0  0  0  0  0
  -28.4933   15.6684  -27.7248 C   0  0  1  0  0  0  0  0  0  0  0  0
  -29.9846   15.9339  -27.7017 C   0  0  0  0  0  0  0  0  0  0  0  0
  -30.3896   16.8594  -28.7295 N   0  0  0  0  0  4  0  0  0  0  0  0
  -31.6213   17.4682  -28.3834 C   0  0  0  0  0  0  0  0  0  0  0  0
  -32.8859   16.8574  -28.8492 C   0  0  0  0  0  0  0  0  0  0  0  0
  -33.1813   15.4739  -28.3772 C   0  0  0  0  0  0  0  0  0  0  0  0
  -33.2571   15.3018  -27.0103 O   0  0  0  0  0  0  0  0  0  0  0  0
  -34.0480   15.7651  -26.0340 C   0  0  0  0  0  0  0  0  0  0  0  0
  -35.1185   16.6128  -26.1603 C   0  0  0  0  0  0  0  0  0  0  0  0
  -35.8831   17.0420  -25.0672 C   0  0  0  0  0  0  0  0  0  0  0  0
  -35.5642   16.6056  -23.8007 C   0  0  0  0  0  0  0  0  0  0  0  0
  -34.4966   15.7547  -23.6425 C   0  0  0  0  0  0  0  0  0  0  0  0
  -33.7588   15.3446  -24.7233 C   0  0  0  0  0  0  0  0  0  0  0  0
  -30.2760   16.3399  -30.0550 C   0  0  0  0  0  0  0  0  0  0  0  0
  -29.0232   15.4620  -30.0857 C   0  0  0  0  0  0  0  0  0  0  0  0
  -27.9920   16.0085  -29.1012 C   0  0  0  0  0  0  0  0  0  0  0  0
  -28.0538   17.5168  -29.2195 C   0  0  0  0  0  0  0  0  0  0  0  0
  -29.3802   17.9613  -28.6843 C   0  0  0  0  0  0  0  0  0  0  0  0
  -26.4379   16.5369  -24.6709 C   0  0  0  0  0  0  0  0  0  0  0  0
  -26.6865   17.8816  -24.8541 O   0  0  0  0  0  0  0  0  0  0  0  0
  -26.9587   16.1254  -23.3609 C   0  0  0  0  0  0  0  0  0  0  0  0
  -27.6809   15.0816  -22.9421 C   0  0  0  0  0  0  0  0  0  0  0  0
  -28.0144   14.9727  -21.6458 C   0  0  0  0  0  0  0  0  0  0  0  0
  -27.6080   15.9348  -20.7736 C   0  0  0  0  0  0  0  0  0  0  0  0
  -26.6913   17.0565  -21.9066 S   0  0  0  0  0  0  0  0  0  0  0  0
  -24.9513   16.3170  -24.6309 C   0  0  0  0  0  0  0  0  0  0  0  0
  -24.2406   15.1588  -24.5279 C   0  0  0  0  0  0  0  0  0  0  0  0
  -22.9142   15.2127  -24.5102 C   0  0  0  0  0  0  0  0  0  0  0  0
  -22.2472   16.3682  -24.5900 C   0  0  0  0  0  0  0  0  0  0  0  0
  -23.6891   17.5602  -24.7078 S   0  0  0  0  0  0  0  0  0  0  0  0
  -29.6002   16.2042  -26.3614 Br  0  0  0  0  0 15  0  0  0  0  0  0
  1  2  2  0
  2  3  1  0
  4  3  1  1
  4  5  1  0
  5  6  1  0
  6  7  1  0
  7  8  1  0
  8  9  1  0
  9 10  1  0
 10 11  1  0
 11 12  2  0
 12 13  1  0
 13 14  2  0
 14 15  1  0
 15 16  2  0
  6 17  1  0
 17 18  1  0
 18 19  1  0
 19 20  1  0
 20 21  1  0
  2 22  1  0
 22 23  1  0
 22 24  1  0
 24 25  2  0
 25 26  1  0
 26 27  2  0
 27 28  1  0
 22 29  1  0
 29 30  2  0
 30 31  1  0
 31 32  2  0
 32 33  1  0
 19  4  1  0
 28 24  1  0
 33 29  1  0
 21  6  1  0
 16 11  1  0
M  CHG  2   6   1  34  -1
M  END
$$$$
