
     RDKit          3D

 14 14  0  0  0  0  0  0  0  0999 V2000
  -16.4537   37.0715  -22.5318 N   0  0  0  0  0  0  0  0  0  0  0  0
  -17.8590   37.5173  -22.4947 C   0  0  0  0  0  0  0  0  0  0  0  0
  -18.5332   36.8561  -21.3269 C   0  0  0  0  0  0  0  0  0  0  0  0
  -18.9782   35.4863  -21.6717 C   0  0  0  0  0  0  0  0  0  0  0  0
  -20.2823   35.2433  -22.0428 C   0  0  0  0  0  0  0  0  0  0  0  0
  -20.7076   33.9628  -22.3775 C   0  0  0  0  0  0  0  0  0  0  0  0
  -19.8201   32.8935  -22.3446 C   0  0  0  0  0  0  0  0  0  0  0  0
  -20.2258   31.6034  -22.6761 O   0  0  0  0  0  0  0  0  0  0  0  0
  -18.5267   33.1893  -21.9668 C   0  0  0  0  0  0  0  0  0  0  0  0
  -17.6001   32.1469  -21.9192 O   0  0  0  0  0  0  0  0  0  0  0  0
  -18.0768   34.4464  -21.6301 C   0  0  0  0  0  0  0  0  0  0  0  0
  -17.8927   38.9787  -22.4856 C   0  0  0  0  0  0  0  0  0  0  0  0
  -18.8733   39.5954  -22.9611 O   0  0  0  0  0  0  0  0  0  0  0  0
  -16.8504   39.7158  -21.9544 O   0  0  0  0  0  0  0  0  0  0  0  0
  1  2  1  0
  2  3  1  0
  3  4  1  0
  4  5  2  0
  5  6  1  0
  6  7  2  0
  7  8  1  0
  7  9  1  0
  9 10  1  0
  9 11  2  0
  2 12  1  0
 12 13  2  0
 12 14  1  0
 11  4  1  0
M  END
$$$$
