
     RDKit          3D

 21 23  0  0  0  0  0  0  0  0999 V2000
  -17.6797    0.7220  -33.5023 C   0  0  0  0  0  0  0  0  0  0  0  0
  -17.7020   -0.5431  -32.8023 N   0  0  0  0  0  0  0  0  0  0  0  0
  -18.7883   -1.3213  -32.6592 C   0  0  0  0  0  0  0  0  0  0  0  0
  -20.1230   -1.0995  -33.1404 C   0  0  0  0  0  0  0  0  0  0  0  0
  -21.2188   -0.9086  -33.5174 N   0  0  0  0  0  0  0  0  0  0  0  0
  -18.4189   -2.4559  -31.9271 C   0  0  0  0  0  0  0  0  0  0  0  0
  -17.0812   -2.2813  -31.6662 C   0  0  0  0  0  0  0  0  0  0  0  0
  -16.6262   -1.1004  -32.2032 C   0  0  0  0  0  0  0  0  0  0  0  0
  -15.2813   -0.5360  -32.1578 C   0  0  0  0  0  0  0  0  0  0  0  0
  -14.9139    0.5060  -31.3350 C   0  0  0  0  0  0  0  0  0  0  0  0
  -13.6271    1.0335  -31.3031 C   0  0  0  0  0  0  0  0  0  0  0  0
  -12.6661    0.4967  -32.1289 C   0  0  0  0  0  0  0  0  0  0  0  0
  -12.9969   -0.5457  -32.9649 C   0  0  0  0  0  0  0  0  0  0  0  0
  -14.2764   -1.0523  -32.9803 C   0  0  0  0  0  0  0  0  0  0  0  0
  -11.9716   -1.1323  -33.8587 C   0  0  0  0  0  0  0  0  0  0  0  0
  -11.8623   -2.6120  -33.4845 C   0  0  0  0  0  0  0  0  0  0  0  0
  -12.4884   -1.1028  -35.3035 C   0  0  0  0  0  0  0  0  0  0  0  0
  -10.7239   -0.5353  -33.7492 O   0  0  0  0  0  0  0  0  0  0  0  0
  -10.3632    0.4981  -32.9319 C   0  0  0  0  0  0  0  0  0  0  0  0
   -8.8625    1.1337  -32.8758 S   0  0  0  0  0  0  0  0  0  0  0  0
  -11.3611    1.0554  -32.0747 N   0  0  0  0  0  0  0  0  0  0  0  0
  1  2  1  0
  2  3  1  0
  3  4  1  0
  4  5  3  0
  3  6  2  0
  6  7  1  0
  7  8  2  0
  8  9  1  0
  9 10  2  0
 10 11  1  0
 11 12  2  0
 12 13  1  0
 13 14  2  0
 13 15  1  0
 15 16  1  0
 15 17  1  0
 15 18  1  0
 18 19  1  0
 19 20  2  0
 19 21  1  0
  8  2  1  0
 14  9  1  0
 21 12  1  0
M  END
$$$$
