
     RDKit          3D

 31 35  0  0  0  0  0  0  0  0999 V2000
  -30.3409   14.2596  -24.6636 C   0  0  0  0  0  0  0  0  0  0  0  0
  -31.6124   13.4479  -24.5346 C   0  0  0  0  0  0  0  0  0  0  0  0
  -31.2474   11.9955  -24.6941 C   0  0  0  0  0  0  0  0  0  0  0  0
  -32.1737   13.7289  -23.2905 O   0  0  0  0  0  0  0  0  0  0  0  0
  -32.7247   14.9713  -23.4881 C   0  0  2  0  0  0  0  0  0  0  0  0
  -34.0265   15.1293  -22.6593 C   0  0  0  0  0  0  0  0  0  0  0  0
  -34.7854   14.0223  -23.2656 C   0  0  1  0  0  0  0  0  0  0  0  0
  -36.2070   13.8380  -22.9894 C   0  0  2  0  0  0  0  0  0  0  0  0
  -36.6034   13.9524  -21.5424 C   0  0  0  0  0  0  0  0  0  0  0  0
  -38.1161   13.9034  -21.5615 C   0  0  2  0  0  0  0  0  0  0  0  0
  -38.5450   13.9806  -20.2770 F   0  0  0  0  0  0  0  0  0  0  0  0
  -38.6023   12.6582  -22.2517 C   0  0  0  0  0  0  0  0  0  0  0  0
  -39.5450   12.0029  -21.6098 C   0  0  0  0  0  0  0  0  0  0  0  0
  -40.1059   10.7826  -22.1624 C   0  0  0  0  0  0  0  0  0  0  0  0
  -40.8221   10.0371  -21.4825 O   0  0  0  0  0  0  0  0  0  0  0  0
  -39.8003   10.4585  -23.5476 C   0  0  0  0  0  0  0  0  0  0  0  0
  -38.4119   10.8703  -23.9761 C   0  0  0  0  0  0  0  0  0  0  0  0
  -38.0182   12.2499  -23.5668 C   0  0  1  0  0  0  0  0  0  0  0  0
  -38.6693   13.1846  -24.5861 C   0  0  0  0  0  0  0  0  0  0  0  0
  -36.5403   12.4091  -23.4504 C   0  0  1  0  0  0  0  0  0  0  0  0
  -35.6531   11.9986  -24.5297 C   0  0  1  0  0  0  0  0  0  0  0  0
  -36.2080   11.0473  -25.4131 O   0  0  0  0  0  0  0  0  0  0  0  0
  -35.0068   13.0155  -25.4083 C   0  0  0  0  0  0  0  0  0  0  0  0
  -34.7038   14.3463  -24.7632 C   0  0  1  0  0  0  0  0  0  0  0  0
  -35.7052   15.3288  -25.2358 C   0  0  0  0  0  0  0  0  0  0  0  0
  -33.2930   14.7969  -24.9042 C   0  0  1  0  0  0  0  0  0  0  0  0
  -33.0910   16.0300  -25.6752 C   0  0  0  0  0  0  0  0  0  0  0  0
  -32.9799   15.8995  -26.9119 O   0  0  0  0  0  0  0  0  0  0  0  0
  -32.9946   17.4017  -25.1695 C   0  0  0  0  0  0  0  0  0  0  0  0
  -32.7013   18.2999  -26.2223 O   0  0  0  0  0  0  0  0  0  0  0  0
  -32.5419   13.7700  -25.4990 O   0  0  0  0  0  0  0  0  0  0  0  0
  1  2  1  0
  2  3  1  0
  2  4  1  0
  4  5  1  0
  5  6  1  1
  7  6  1  1
  7  8  1  0
  8  9  1  1
  9 10  1  0
 10 11  1  1
 10 12  1  0
 12 13  2  0
 13 14  1  0
 14 15  2  0
 14 16  1  0
 16 17  1  0
 17 18  1  0
 18 19  1  6
 18 20  1  0
 20 21  1  6
 21 22  1  6
 21 23  1  0
 23 24  1  0
 24 25  1  6
 24 26  1  0
 26 27  1  6
 27 28  2  0
 27 29  1  0
 29 30  1  0
 26 31  1  0
 31  2  1  0
 26  5  1  0
 24  7  1  0
 20  8  1  0
 18 12  1  0
M  END
$$$$
