
     RDKit          3D

 24 25  0  0  0  0  0  0  0  0999 V2000
  -28.2853   15.6351  -28.6316 C   0  0  0  0  0  0  0  0  0  0  0  0
  -27.4240   16.4717  -27.7634 C   0  0  0  0  0  0  0  0  0  0  0  0
  -26.0860   16.1068  -27.6027 C   0  0  0  0  0  0  0  0  0  0  0  0
  -25.2378   16.8523  -26.8160 C   0  0  0  0  0  0  0  0  0  0  0  0
  -23.9215   16.4653  -26.6789 O   0  0  0  0  0  0  0  0  0  0  0  0
  -23.4328   15.3536  -26.0088 C   0  0  0  0  0  0  0  0  0  0  0  0
  -22.0648   15.5836  -25.5408 C   0  0  0  0  0  0  0  0  0  0  0  0
  -21.5001   14.7238  -24.8259 O   0  0  0  0  0  0  0  0  0  0  0  0
  -21.3214   16.7174  -25.8376 O   0  0  0  0  0  0  0  0  0  0  0  0
  -25.7537   17.9570  -26.2033 C   0  0  0  0  0  0  0  0  0  0  0  0
  -27.0949   18.3305  -26.3591 C   0  0  0  0  0  0  0  0  0  0  0  0
  -27.5110   19.5513  -25.6756 C   0  0  0  0  0  0  0  0  0  0  0  0
  -27.9622   17.5814  -27.1523 C   0  0  0  0  0  0  0  0  0  0  0  0
  -29.3819   18.0028  -27.3101 C   0  0  0  0  0  0  0  0  0  0  0  0
  -30.3558   17.1693  -26.6030 C   0  0  0  0  0  0  0  0  0  0  0  0
  -30.0715   16.6206  -25.3825 C   0  0  0  0  0  0  0  0  0  0  0  0
  -31.0167   15.8573  -24.7218 C   0  0  0  0  0  0  0  0  0  0  0  0
  -32.2451   15.6372  -25.2711 C   0  0  0  0  0  0  0  0  0  0  0  0
  -33.1659   14.8638  -24.5733 O   0  0  0  0  0  0  0  0  0  0  0  0
  -32.5629   16.1729  -26.4939 C   0  0  0  0  0  0  0  0  0  0  0  0
  -33.9168   15.8904  -27.0290 C   0  0  0  0  0  0  0  0  0  0  0  0
  -34.0128   16.0898  -28.5063 C   0  0  0  0  0  0  0  0  0  0  0  0
  -34.9124   16.7550  -26.2629 C   0  0  0  0  0  0  0  0  0  0  0  0
  -31.6258   16.9188  -27.1288 C   0  0  0  0  0  0  0  0  0  0  0  0
  1  2  1  0
  2  3  2  0
  3  4  1  0
  4  5  1  0
  5  6  1  0
  6  7  1  0
  7  8  2  0
  7  9  1  0
  4 10  2  0
 10 11  1  0
 11 12  1  0
 11 13  2  0
 13 14  1  0
 14 15  1  0
 15 16  2  0
 16 17  1  0
 17 18  2  0
 18 19  1  0
 18 20  1  0
 20 21  1  0
 21 22  1  0
 21 23  1  0
 20 24  2  0
 13  2  1  0
 24 15  1  0
M  END
$$$$
