
     RDKit          3D

 32 34  0  0  0  0  0  0  0  0999 V2000
  -16.0985   18.8312  -30.7169 C   0  0  0  0  0  0  0  0  0  0  0  0
  -17.0696   18.0847  -31.3730 O   0  0  0  0  0  0  0  0  0  0  0  0
  -17.4885   18.2964  -32.6730 C   0  0  0  0  0  0  0  0  0  0  0  0
  -18.8018   18.6450  -32.9060 C   0  0  0  0  0  0  0  0  0  0  0  0
  -19.2686   18.8673  -34.1880 C   0  0  0  0  0  0  0  0  0  0  0  0
  -18.3826   18.7319  -35.2472 C   0  0  0  0  0  0  0  0  0  0  0  0
  -18.8301   18.9538  -36.5843 N   0  0  0  0  0  0  0  0  0  0  0  0
  -20.2379   19.1761  -36.7519 C   0  0  0  0  0  0  0  0  0  0  0  0
  -21.0641   18.6149  -35.9528 O   0  0  0  0  0  0  0  0  0  0  0  0
  -20.7900   20.0133  -37.7911 C   0  0  0  0  0  0  0  0  0  0  0  0
  -19.9512   20.8345  -38.5018 C   0  0  0  0  0  0  0  0  0  0  0  0
  -20.5142   21.6313  -39.4990 C   0  0  0  0  0  0  0  0  0  0  0  0
  -21.8801   21.5953  -39.7649 C   0  0  0  0  0  0  0  0  0  0  0  0
  -22.4133   22.4502  -40.8191 C   0  0  0  0  0  0  0  0  0  0  0  0
  -23.5066   22.1736  -41.4121 N   0  0  0  0  0  0  0  0  0  0  0  0
  -21.7176   23.6285  -41.2168 N   0  0  0  0  0  0  0  0  0  0  0  0
  -20.4561   24.0069  -40.6340 C   0  0  0  0  0  0  0  0  0  0  0  0
  -22.3196   24.4698  -42.2527 C   0  0  0  0  0  0  0  0  0  0  0  0
  -22.7050   20.7740  -39.0509 C   0  0  0  0  0  0  0  0  0  0  0  0
  -22.1371   19.9791  -38.0546 C   0  0  0  0  0  0  0  0  0  0  0  0
  -17.0623   18.3848  -35.0555 C   0  0  0  0  0  0  0  0  0  0  0  0
  -16.1859   18.2600  -36.2143 C   0  0  0  0  0  0  0  0  0  0  0  0
  -16.2771   19.0742  -37.1761 O   0  0  0  0  0  0  0  0  0  0  0  0
  -15.1924   17.2534  -36.3593 N   0  0  0  0  0  0  0  0  0  0  0  0
  -14.2107   17.2968  -37.3943 C   0  0  0  0  0  0  0  0  0  0  0  0
  -14.5541   17.8665  -38.6006 C   0  0  0  0  0  0  0  0  0  0  0  0
  -13.6526   17.9445  -39.6532 C   0  0  0  0  0  0  0  0  0  0  0  0
  -12.3694   17.4410  -39.5038 C   0  0  0  0  0  0  0  0  0  0  0  0
  -11.1874   17.5119  -40.7996 Cl  0  0  0  0  0  0  0  0  0  0  0  0
  -12.0631   16.8788  -38.2830 C   0  0  0  0  0  0  0  0  0  0  0  0
  -12.9653   16.8161  -37.2706 N   0  0  0  0  0  0  0  0  0  0  0  0
  -16.6510   18.1753  -33.7593 C   0  0  0  0  0  0  0  0  0  0  0  0
  1  2  1  0
  2  3  1  0
  3  4  2  0
  4  5  1  0
  5  6  2  0
  6  7  1  0
  7  8  1  0
  8  9  2  0
  8 10  1  0
 10 11  2  0
 11 12  1  0
 12 13  2  0
 13 14  1  0
 14 15  2  0
 14 16  1  0
 16 17  1  0
 16 18  1  0
 13 19  1  0
 19 20  2  0
  6 21  1  0
 21 22  1  0
 22 23  2  0
 22 24  1  0
 24 25  1  0
 25 26  2  0
 26 27  1  0
 27 28  2  0
 28 29  1  0
 28 30  1  0
 30 31  2  0
 21 32  2  0
 32  3  1  0
 20 10  1  0
 31 25  1  0
M  END
$$$$
