
     RDKit          3D

 26 30  0  0  0  0  0  0  0  0999 V2000
  -16.7191   45.8379  -24.3757 C   0  0  0  0  0  0  0  0  0  0  0  0
  -16.8773   45.5612  -22.8842 C   0  0  1  0  0  0  0  0  0  0  0  0
  -17.8071   44.4041  -22.7308 C   0  0  0  0  0  0  0  0  0  0  0  0
  -17.3872   43.4489  -21.6839 C   0  0  0  0  0  0  0  0  0  0  0  0
  -16.3324   43.6536  -20.8278 C   0  0  0  0  0  0  0  0  0  0  0  0
  -16.2081   42.6091  -19.9991 N   0  0  0  0  0  0  0  0  0  0  0  0
  -17.1675   41.7027  -20.2871 C   0  0  0  0  0  0  0  0  0  0  0  0
  -17.4684   40.4725  -19.7333 C   0  0  0  0  0  0  0  0  0  0  0  0
  -18.5166   39.7573  -20.2354 C   0  0  0  0  0  0  0  0  0  0  0  0
  -18.9149   38.1982  -19.5493 Cl  0  0  0  0  0  0  0  0  0  0  0  0
  -19.2751   40.2498  -21.2867 C   0  0  0  0  0  0  0  0  0  0  0  0
  -20.3081   39.5105  -21.7581 F   0  0  0  0  0  0  0  0  0  0  0  0
  -18.9481   41.4814  -21.8170 C   0  0  0  0  0  0  0  0  0  0  0  0
  -17.9108   42.2305  -21.3482 C   0  0  0  0  0  0  0  0  0  0  0  0
  -15.5670   44.9224  -20.9697 C   0  0  1  0  0  0  0  0  0  0  0  0
  -15.5664   45.3454  -22.3472 N   0  0  0  0  0  0  0  0  0  0  0  0
  -16.0486   45.9646  -20.0519 C   0  0  0  0  0  0  0  0  0  0  0  0
  -17.2166   46.4500  -20.1088 O   0  0  0  0  0  0  0  0  0  0  0  0
  -14.9903   46.2718  -19.1655 N   0  0  0  0  0  0  0  0  0  0  0  0
  -13.8746   45.4571  -19.5035 C   0  0  0  0  0  0  0  0  0  0  0  0
  -12.5936   45.3498  -18.9661 C   0  0  0  0  0  0  0  0  0  0  0  0
  -11.6582   44.4701  -19.4691 C   0  0  0  0  0  0  0  0  0  0  0  0
  -11.9572   43.6469  -20.5427 C   0  0  0  0  0  0  0  0  0  0  0  0
  -10.7644   42.5311  -21.1776 Cl  0  0  0  0  0  0  0  0  0  0  0  0
  -13.2224   43.7532  -21.0732 C   0  0  0  0  0  0  0  0  0  0  0  0
  -14.1783   44.6464  -20.5655 C   0  0  0  0  0  0  0  0  0  0  0  0
  2  1  1  6
  2  3  1  0
  3  4  1  0
  4  5  2  0
  5  6  1  0
  6  7  1  0
  7  8  2  0
  8  9  1  0
  9 10  1  0
  9 11  2  0
 11 12  1  0
 11 13  1  0
 13 14  2  0
  5 15  1  0
 15 16  1  6
 15 17  1  0
 17 18  2  0
 17 19  1  0
 19 20  1  0
 20 21  2  0
 21 22  1  0
 22 23  2  0
 23 24  1  0
 23 25  1  0
 25 26  2  0
 16  2  1  0
 26 20  1  0
 14  4  1  0
 26 15  1  0
 14  7  1  0
M  END
$$$$
