
     RDKit          3D

 25 28  0  0  0  0  0  0  0  0999 V2000
  -20.5382   38.7147  -21.7689 O   0  0  0  0  0  0  0  0  0  0  0  0
  -19.5833   38.5117  -20.9839 C   0  0  0  0  0  0  0  0  0  0  0  0
  -19.8455   38.5318  -19.6245 O   0  0  0  0  0  0  0  0  0  0  0  0
  -18.2210   38.2575  -21.4267 C   0  0  0  0  0  0  0  0  0  0  0  0
  -17.1280   38.8374  -20.8203 C   0  0  0  0  0  0  0  0  0  0  0  0
  -15.8398   38.6023  -21.2324 C   0  0  0  0  0  0  0  0  0  0  0  0
  -15.6289   37.7567  -22.2900 C   0  0  0  0  0  0  0  0  0  0  0  0
  -16.7018   37.1735  -22.9023 C   0  0  0  0  0  0  0  0  0  0  0  0
  -18.0200   37.3938  -22.5054 C   0  0  0  0  0  0  0  0  0  0  0  0
  -19.1356   36.7530  -23.1843 C   0  0  0  0  0  0  0  0  0  0  0  0
  -19.7961   37.3012  -24.2630 C   0  0  0  0  0  0  0  0  0  0  0  0
  -19.4141   38.5119  -24.7538 C   0  0  0  0  0  0  0  0  0  0  0  0
  -20.0872   39.0419  -25.8321 C   0  0  0  0  0  0  0  0  0  0  0  0
  -21.1420   38.3814  -26.4340 C   0  0  0  0  0  0  0  0  0  0  0  0
  -21.7133   38.9372  -27.4266 O   0  0  0  0  0  0  0  0  0  0  0  0
  -21.5799   37.1540  -25.9885 C   0  0  0  0  0  0  0  0  0  0  0  0
  -20.9240   36.5996  -24.9101 C   0  0  0  0  0  0  0  0  0  0  0  0
  -21.2678   35.4531  -24.4268 O   0  0  0  0  0  0  0  0  0  0  0  0
  -20.6548   34.9059  -23.3977 C   0  0  0  0  0  0  0  0  0  0  0  0
  -21.0911   33.6890  -22.9581 C   0  0  0  0  0  0  0  0  0  0  0  0
  -20.4919   33.0677  -21.8891 C   0  0  0  0  0  0  0  0  0  0  0  0
  -20.9438   31.8191  -21.4425 O   0  0  0  0  0  0  0  0  0  0  0  0
  -19.4405   33.6548  -21.2371 C   0  0  0  0  0  0  0  0  0  0  0  0
  -18.9916   34.8804  -21.6701 C   0  0  0  0  0  0  0  0  0  0  0  0
  -19.5816   35.5249  -22.7465 C   0  0  0  0  0  0  0  0  0  0  0  0
  1  2  2  0
  2  3  1  0
  2  4  1  0
  4  5  2  0
  5  6  1  0
  6  7  2  0
  7  8  1  0
  8  9  2  0
  9 10  1  0
 10 11  2  0
 11 12  1  0
 12 13  2  0
 13 14  1  0
 14 15  2  0
 14 16  1  0
 16 17  2  0
 17 18  1  0
 18 19  1  0
 19 20  2  0
 20 21  1  0
 21 22  1  0
 21 23  2  0
 23 24  1  0
 24 25  2  0
  9  4  1  0
 25 10  1  0
 17 11  1  0
 25 19  1  0
M  END
$$$$
