
     RDKit          3D

 17 20  0  0  0  0  0  0  0  0999 V2000
  -15.5066   18.6776  -35.7352 O   0  0  0  0  0  0  0  0  0  0  0  0
  -16.2438   17.8250  -35.2236 C   0  0  0  0  0  0  0  0  0  0  0  0
  -17.6687   17.6534  -35.5729 C   0  0  0  0  0  0  0  0  0  0  0  0
  -18.2285   18.4735  -36.5145 C   0  0  0  0  0  0  0  0  0  0  0  0
  -19.5613   18.3514  -36.8760 C   0  0  0  0  0  0  0  0  0  0  0  0
  -20.3555   17.3752  -36.2726 C   0  0  0  0  0  0  0  0  0  0  0  0
  -19.8019   16.5416  -35.3209 C   0  0  0  0  0  0  0  0  0  0  0  0
  -18.4592   16.6920  -34.9817 C   0  0  0  0  0  0  0  0  0  0  0  0
  -17.8643   15.8241  -33.9843 C   0  0  0  0  0  0  0  0  0  0  0  0
  -18.3228   14.7988  -33.2175 N   0  0  0  0  0  0  0  0  0  0  0  0
  -17.3071   14.3561  -32.4564 N   0  0  0  0  0  0  0  0  0  0  0  0
  -16.1987   15.0724  -32.7130 C   0  0  0  0  0  0  0  0  0  0  0  0
  -14.8910   15.1004  -32.2751 C   0  0  0  0  0  0  0  0  0  0  0  0
  -13.9984   16.0357  -32.8066 C   0  0  0  0  0  0  0  0  0  0  0  0
  -14.4028   16.9458  -33.7747 C   0  0  0  0  0  0  0  0  0  0  0  0
  -15.7103   16.9206  -34.2151 C   0  0  0  0  0  0  0  0  0  0  0  0
  -16.5536   15.9852  -33.6660 C   0  0  0  0  0  0  0  0  0  0  0  0
  1  2  2  0
  2  3  1  0
  3  4  2  0
  4  5  1  0
  5  6  2  0
  6  7  1  0
  7  8  2  0
  8  9  1  0
  9 10  2  0
 10 11  1  0
 11 12  1  0
 12 13  1  0
 13 14  2  0
 14 15  1  0
 15 16  2  0
 16 17  1  0
 16  2  1  0
  8  3  1  0
 17  9  1  0
 17 12  2  0
M  END
$$$$
