
     RDKit          3D

 17 18  0  0  0  0  0  0  0  0999 V2000
  -22.8624   32.1280  -22.2006 C   0  0  0  0  0  0  0  0  0  0  0  0
  -21.6436   31.5344  -21.8196 O   0  0  0  0  0  0  0  0  0  0  0  0
  -20.4742   32.2949  -21.7848 C   0  0  0  0  0  0  0  0  0  0  0  0
  -19.2709   31.7290  -21.4159 C   0  0  0  0  0  0  0  0  0  0  0  0
  -18.1038   32.4833  -21.3801 C   0  0  0  0  0  0  0  0  0  0  0  0
  -18.1056   33.8287  -21.7128 C   0  0  0  0  0  0  0  0  0  0  0  0
  -17.1531   34.7705  -21.7641 N   0  0  0  0  0  0  0  0  0  0  0  0
  -17.7308   35.9142  -22.1566 C   0  0  0  0  0  0  0  0  0  0  0  0
  -19.0748   35.7107  -22.3622 C   0  0  0  0  0  0  0  0  0  0  0  0
  -20.1268   36.6701  -22.7995 C   0  0  0  0  0  0  0  0  0  0  0  0
  -19.8772   37.9605  -22.0864 C   0  0  0  0  0  0  0  0  0  0  0  0
  -18.6883   38.6423  -22.5152 N   0  0  0  0  0  0  0  0  0  0  0  0
  -18.7553   39.3732  -23.7349 C   0  0  0  0  0  0  0  0  0  0  0  0
  -17.6204   40.2007  -24.2325 C   0  0  0  0  0  0  0  0  0  0  0  0
  -19.7940   39.3574  -24.4674 O   0  0  0  0  0  0  0  0  0  0  0  0
  -19.3129   34.3850  -22.0801 C   0  0  0  0  0  0  0  0  0  0  0  0
  -20.4692   33.6338  -22.1146 C   0  0  0  0  0  0  0  0  0  0  0  0
  1  2  1  0
  2  3  1  0
  3  4  2  0
  4  5  1  0
  5  6  2  0
  6  7  1  0
  7  8  1  0
  8  9  2  0
  9 10  1  0
 10 11  1  0
 11 12  1  0
 12 13  1  0
 13 14  1  0
 13 15  2  0
  9 16  1  0
 16 17  2  0
 17  3  1  0
 16  6  1  0
M  END
$$$$
