
     RDKit          3D

 34 38  0  0  0  0  0  0  0  0999 V2000
  -19.0293   38.2469  -20.3421 O   0  0  0  0  0  0  0  0  0  0  0  0
  -19.0588   38.5720  -21.5823 C   0  0  0  0  0  0  0  0  0  0  0  0
  -19.3116   39.9432  -21.8662 N   0  0  0  0  0  0  0  0  0  0  0  0
  -18.7880   41.0060  -21.0280 C   0  0  0  0  0  0  0  0  0  0  0  0
  -17.2894   41.0043  -21.0177 C   0  0  0  0  0  0  0  0  0  0  0  0
  -16.8525   42.1794  -20.1247 C   0  0  0  0  0  0  0  0  0  0  0  0
  -15.4334   42.0975  -19.8472 N   0  0  0  0  0  0  0  0  0  0  0  0
  -14.6301   43.2502  -20.1331 C   0  0  0  0  0  0  0  0  0  0  0  0
  -15.1896   44.4118  -20.4792 N   0  0  0  0  0  0  0  0  0  0  0  0
  -14.4497   45.5220  -20.7762 C   0  0  0  0  0  0  0  0  0  0  0  0
  -15.1797   46.6692  -21.1211 N   0  0  0  0  0  0  0  0  0  0  0  0
  -16.5886   46.7705  -21.1883 C   0  0  0  0  0  0  0  0  0  0  0  0
  -17.3475   46.5516  -20.0382 C   0  0  0  0  0  0  0  0  0  0  0  0
  -18.7063   46.6629  -20.1261 C   0  0  0  0  0  0  0  0  0  0  0  0
  -19.2977   46.9836  -21.3188 C   0  0  0  0  0  0  0  0  0  0  0  0
  -18.5760   47.2087  -22.4782 C   0  0  0  0  0  0  0  0  0  0  0  0
  -19.2612   47.5723  -23.7326 C   0  0  0  0  0  0  0  0  0  0  0  0
  -20.2197   46.5600  -24.1368 N   0  0  0  0  0  0  0  0  0  0  0  0
  -20.9152   46.9453  -25.3211 C   0  0  0  0  0  0  0  0  0  0  0  0
  -21.1847   45.7649  -26.2386 C   0  0  0  0  0  0  0  0  0  0  0  0
  -20.0130   45.1225  -26.6338 O   0  0  0  0  0  0  0  0  0  0  0  0
  -18.9950   45.2474  -25.6844 C   0  0  0  0  0  0  0  0  0  0  0  0
  -19.6509   45.2599  -24.3199 C   0  0  0  0  0  0  0  0  0  0  0  0
  -17.2116   47.0927  -22.3790 C   0  0  0  0  0  0  0  0  0  0  0  0
  -13.1252   45.4039  -20.7057 N   0  0  0  0  0  0  0  0  0  0  0  0
  -12.4906   44.2480  -20.3589 C   0  0  0  0  0  0  0  0  0  0  0  0
  -13.2401   43.1608  -20.0698 C   0  0  0  0  0  0  0  0  0  0  0  0
  -12.6536   41.8451  -19.6668 C   0  0  0  0  0  0  0  0  0  0  0  0
  -11.1820   41.7445  -19.4696 C   0  0  0  0  0  0  0  0  0  0  0  0
  -12.0282   41.8384  -18.2553 C   0  0  0  0  0  0  0  0  0  0  0  0
  -18.8342   37.5245  -22.5936 C   0  0  0  0  0  0  0  0  0  0  0  0
  -19.6772   36.2951  -22.5298 C   0  0  0  0  0  0  0  0  0  0  0  0
  -18.4432   35.4472  -22.3927 C   0  0  0  0  0  0  0  0  0  0  0  0
  -17.6217   36.6929  -22.2260 C   0  0  0  0  0  0  0  0  0  0  0  0
  1  2  2  0
  2  3  1  0
  3  4  1  0
  4  5  1  0
  5  6  1  0
  6  7  1  0
  7  8  1  0
  8  9  2  0
  9 10  1  0
 10 11  1  0
 11 12  1  0
 12 13  2  0
 13 14  1  0
 14 15  2  0
 15 16  1  0
 16 17  1  0
 17 18  1  0
 18 19  1  0
 19 20  1  0
 20 21  1  0
 21 22  1  0
 22 23  1  0
 16 24  2  0
 10 25  2  0
 25 26  1  0
 26 27  2  0
 27 28  1  0
 28 29  1  0
 29 30  1  0
  2 31  1  0
 31 32  1  0
 32 33  1  0
 33 34  1  0
 27  8  1  0
 30 28  1  0
 34 31  1  0
 24 12  1  0
 23 18  1  0
M  END
$$$$
