
     RDKit          3D

 27 29  0  0  0  0  0  0  0  0999 V2000
  -19.8238   42.1188  -25.5347 C   0  0  0  0  0  0  0  0  0  0  0  0
  -19.9026   41.1265  -26.5235 O   0  0  0  0  0  0  0  0  0  0  0  0
  -20.2663   39.8456  -26.1779 C   0  0  0  0  0  0  0  0  0  0  0  0
  -19.2968   38.9247  -25.8037 C   0  0  0  0  0  0  0  0  0  0  0  0
  -19.6220   37.6328  -25.4515 C   0  0  0  0  0  0  0  0  0  0  0  0
  -18.6189   36.6184  -25.0634 C   0  0  0  0  0  0  0  0  0  0  0  0
  -18.6134   36.2884  -23.6173 C   0  0  1  0  0  0  0  0  0  0  0  0
  -17.9818   35.0169  -23.2337 C   0  0  0  0  0  0  0  0  0  0  0  0
  -17.7886   33.9400  -23.8473 O   0  0  0  0  0  0  0  0  0  0  0  0
  -17.5565   35.1711  -21.8994 O   0  0  0  0  0  0  0  0  0  0  0  0
  -17.6512   36.5275  -21.5094 C   0  0  0  0  0  0  0  0  0  0  0  0
  -17.7456   37.2785  -22.8207 C   0  0  2  0  0  0  0  0  0  0  0  0
  -18.4666   38.5956  -22.6591 C   0  0  0  0  0  0  0  0  0  0  0  0
  -17.7330   39.5028  -21.7415 C   0  0  0  0  0  0  0  0  0  0  0  0
  -16.6537   40.2455  -22.2002 C   0  0  0  0  0  0  0  0  0  0  0  0
  -15.9634   41.0926  -21.3563 C   0  0  0  0  0  0  0  0  0  0  0  0
  -16.3198   41.2359  -20.0177 C   0  0  0  0  0  0  0  0  0  0  0  0
  -15.6499   42.0685  -19.1668 O   0  0  0  0  0  0  0  0  0  0  0  0
  -15.0748   43.2938  -19.5039 C   0  0  0  0  0  0  0  0  0  0  0  0
  -17.3912   40.4986  -19.5626 C   0  0  0  0  0  0  0  0  0  0  0  0
  -17.7471   40.6405  -18.2294 O   0  0  0  0  0  0  0  0  0  0  0  0
  -18.7753   39.8149  -17.7186 C   0  0  0  0  0  0  0  0  0  0  0  0
  -18.0703   39.6590  -20.4114 C   0  0  0  0  0  0  0  0  0  0  0  0
  -20.9699   37.2879  -25.4858 C   0  0  0  0  0  0  0  0  0  0  0  0
  -21.9601   38.1656  -25.8489 C   0  0  0  0  0  0  0  0  0  0  0  0
  -21.5979   39.4473  -26.1949 C   0  0  0  0  0  0  0  0  0  0  0  0
  -22.5587   40.3749  -26.5702 O   0  0  0  0  0  0  0  0  0  0  0  0
  1  2  1  0
  2  3  1  0
  3  4  2  0
  4  5  1  0
  5  6  1  0
  7  6  1  6
  7  8  1  0
  8  9  2  0
  8 10  1  0
 10 11  1  0
 11 12  1  0
 12 13  1  1
 13 14  1  0
 14 15  2  0
 15 16  1  0
 16 17  2  0
 17 18  1  0
 18 19  1  0
 17 20  1  0
 20 21  1  0
 21 22  1  0
 20 23  2  0
  5 24  2  0
 24 25  1  0
 25 26  2  0
 26 27  1  0
 26  3  1  0
 12  7  1  0
 23 14  1  0
M  END
$$$$
