
     RDKit          3D

 28 31  0  0  0  0  0  0  0  0999 V2000
  -21.6545   21.0486  -33.7245 C   0  0  0  0  0  0  0  0  0  0  0  0
  -22.5971   20.5871  -34.6688 O   0  0  0  0  0  0  0  0  0  0  0  0
  -22.6763   19.2646  -35.0761 C   0  0  0  0  0  0  0  0  0  0  0  0
  -23.5645   18.9557  -36.0829 C   0  0  0  0  0  0  0  0  0  0  0  0
  -23.6455   17.6505  -36.4861 C   0  0  0  0  0  0  0  0  0  0  0  0
  -22.8394   16.6735  -35.8791 C   0  0  0  0  0  0  0  0  0  0  0  0
  -21.9769   17.0093  -34.8959 C   0  0  0  0  0  0  0  0  0  0  0  0
  -21.1839   16.0480  -34.1583 C   0  0  0  0  0  0  0  0  0  0  0  0
  -21.9040   15.0960  -33.3975 C   0  0  0  0  0  0  0  0  0  0  0  0
  -21.3290   14.1427  -32.6417 C   0  0  0  0  0  0  0  0  0  0  0  0
  -22.0551   13.2290  -31.9113 F   0  0  0  0  0  0  0  0  0  0  0  0
  -19.9602   14.0773  -32.5960 C   0  0  0  0  0  0  0  0  0  0  0  0
  -19.2150   14.9784  -33.3133 C   0  0  0  0  0  0  0  0  0  0  0  0
  -19.8287   15.9711  -34.0973 C   0  0  0  0  0  0  0  0  0  0  0  0
  -18.9274   16.9985  -34.7302 C   0  0  1  0  0  0  0  0  0  0  0  0
  -18.5729   18.0629  -33.7331 C   0  0  0  0  0  0  0  0  0  0  0  0
  -17.2272   17.9944  -33.1492 C   0  0  0  0  0  0  0  0  0  0  0  0
  -16.9382   18.7977  -32.0729 N   0  0  0  0  0  0  0  0  0  0  0  0
  -15.7430   18.8179  -31.4802 C   0  0  0  0  0  0  0  0  0  0  0  0
  -15.4748   19.6643  -30.3630 N   0  0  0  0  0  0  0  0  0  0  0  0
  -14.7647   18.0070  -31.9624 N   0  0  0  0  0  0  0  0  0  0  0  0
  -15.0050   17.2060  -33.0124 C   0  0  0  0  0  0  0  0  0  0  0  0
  -13.9557   16.3013  -33.5705 C   0  0  0  0  0  0  0  0  0  0  0  0
  -16.2595   17.1785  -33.6411 C   0  0  0  0  0  0  0  0  0  0  0  0
  -16.5183   16.3015  -34.7605 C   0  0  0  0  0  0  0  0  0  0  0  0
  -15.6160   15.5318  -35.2310 O   0  0  0  0  0  0  0  0  0  0  0  0
  -17.8275   16.3214  -35.3311 N   0  0  0  0  0  0  0  0  0  0  0  0
  -21.9310   18.3219  -34.5260 N   0  0  0  0  0  0  0  0  0  0  0  0
  1  2  1  0
  2  3  1  0
  3  4  2  0
  4  5  1  0
  5  6  2  0
  6  7  1  0
  7  8  1  0
  8  9  2  0
  9 10  1  0
 10 11  1  0
 10 12  2  0
 12 13  1  0
 13 14  2  0
 15 14  1  1
 15 16  1  0
 16 17  1  0
 17 18  2  0
 18 19  1  0
 19 20  1  0
 19 21  2  0
 21 22  1  0
 22 23  1  0
 22 24  2  0
 24 25  1  0
 25 26  2  0
 25 27  1  0
  7 28  2  0
 28  3  1  0
 14  8  1  0
 27 15  1  0
 24 17  1  0
M  END
$$$$
