
     RDKit          3D

 30 30  0  0  0  0  0  0  0  0999 V2000
  -24.5416    8.8379  -32.3620 C   0  0  0  0  0  0  0  0  0  0  0  0
  -23.6682   10.0427  -32.3217 C   0  0  0  0  0  0  0  0  0  0  0  0
  -24.2877   11.3032  -32.2434 N   0  0  0  0  0  0  0  0  0  0  0  0
  -25.0302   11.7762  -33.3493 C   0  0  0  0  0  0  0  0  0  0  0  0
  -26.3273   10.9982  -33.5990 C   0  0  0  0  0  0  0  0  0  0  0  0
  -23.4724   12.2438  -31.5512 C   0  0  0  0  0  0  0  0  0  0  0  0
  -22.2041   12.6271  -32.2832 C   0  0  0  0  0  0  0  0  0  0  0  0
  -21.4194   13.6362  -31.4562 C   0  0  0  0  0  0  0  0  0  0  0  0
  -20.1409   14.0152  -32.1810 C   0  0  0  0  0  0  0  0  0  0  0  0
  -20.3815   14.6232  -33.5082 C   0  0  0  0  0  0  0  0  0  0  0  0
  -19.3091   14.8661  -31.3609 N   0  0  0  0  0  0  0  0  0  0  0  0
  -18.0897   15.4570  -31.7392 C   0  0  0  0  0  0  0  0  0  0  0  0
  -16.8947   14.7626  -31.5865 C   0  0  0  0  0  0  0  0  0  0  0  0
  -16.8527   13.4836  -31.0623 C   0  0  0  0  0  0  0  0  0  0  0  0
  -15.6689   12.7722  -30.8973 C   0  0  0  0  0  0  0  0  0  0  0  0
  -14.4768   13.3491  -31.2656 C   0  0  0  0  0  0  0  0  0  0  0  0
  -12.9723   12.4627  -31.0635 Cl  0  0  0  0  0  0  0  0  0  0  0  0
  -14.4722   14.6271  -31.7937 C   0  0  0  0  0  0  0  0  0  0  0  0
  -15.6667   15.3194  -31.9496 C   0  0  0  0  0  0  0  0  0  0  0  0
  -15.6523   16.5620  -32.4587 N   0  0  0  0  0  0  0  0  0  0  0  0
  -16.7738   17.2824  -32.6282 C   0  0  0  0  0  0  0  0  0  0  0  0
  -16.6655   18.5653  -33.1452 C   0  0  0  0  0  0  0  0  0  0  0  0
  -17.8121   19.3074  -33.3010 C   0  0  0  0  0  0  0  0  0  0  0  0
  -19.0488   18.7810  -32.9468 C   0  0  0  0  0  0  0  0  0  0  0  0
  -20.1941   19.5724  -33.1215 O   0  0  0  0  0  0  0  0  0  0  0  0
  -21.4353   19.0058  -32.7509 C   0  0  0  0  0  0  0  0  0  0  0  0
  -19.1256   17.5071  -32.4373 C   0  0  0  0  0  0  0  0  0  0  0  0
  -18.0044   16.7287  -32.2660 C   0  0  0  0  0  0  0  0  0  0  0  0
  -21.0471   13.6036  -32.4698 Cl  0  0  0  0  0  0  0  0  0  0  0  0
  -21.0428   13.6072  -32.4695 Cl  0  0  0  0  0  0  0  0  0  0  0  0
  1  2  1  0
  2  3  1  0
  3  4  1  0
  4  5  1  0
  3  6  1  0
  6  7  1  0
  7  8  1  0
  8  9  1  0
  9 10  1  0
  9 11  1  0
 11 12  1  0
 12 13  2  0
 13 14  1  0
 14 15  2  0
 15 16  1  0
 16 17  1  0
 16 18  2  0
 18 19  1  0
 19 20  2  0
 20 21  1  0
 21 22  2  0
 22 23  1  0
 23 24  2  0
 24 25  1  0
 25 26  1  0
 24 27  1  0
 27 28  2  0
 28 12  1  0
 19 13  1  0
 28 21  1  0
M  END
$$$$
