
     RDKit          3D

 36 39  0  0  0  0  0  0  0  0999 V2000
  -21.3995   33.5410  -20.9844 C   0  0  0  0  0  0  0  0  0  0  0  0
  -20.0058   33.9617  -20.5614 C   0  0  0  0  0  0  0  0  0  0  0  0
  -19.0928   34.1030  -21.7499 C   0  0  0  0  0  0  0  0  0  0  0  0
  -19.1994   35.4628  -22.2358 N   0  0  0  0  0  0  0  0  0  0  0  0
  -18.5064   36.4301  -21.6159 C   0  0  0  0  0  0  0  0  0  0  0  0
  -17.7915   36.1104  -20.6353 O   0  0  0  0  0  0  0  0  0  0  0  0
  -18.6017   37.7273  -22.0714 C   0  0  0  0  0  0  0  0  0  0  0  0
  -18.0487   38.8854  -21.6766 N   0  0  0  0  0  0  0  0  0  0  0  0
  -18.4654   39.8948  -22.4613 C   0  0  0  0  0  0  0  0  0  0  0  0
  -18.1054   41.3087  -22.3752 C   0  0  0  0  0  0  0  0  0  0  0  0
  -17.4496   41.7779  -21.2756 C   0  0  0  0  0  0  0  0  0  0  0  0
  -17.1029   43.1274  -21.1873 C   0  0  0  0  0  0  0  0  0  0  0  0
  -17.4234   44.0078  -22.2213 C   0  0  0  0  0  0  0  0  0  0  0  0
  -17.0751   45.3475  -22.1253 O   0  0  0  0  0  0  0  0  0  0  0  0
  -16.2027   45.7525  -21.0871 C   0  0  0  0  0  0  0  0  0  0  0  0
  -17.0367   46.2931  -19.9858 C   0  0  0  0  0  0  0  0  0  0  0  0
  -18.1235   46.9271  -20.2109 O   0  0  0  0  0  0  0  0  0  0  0  0
  -16.6952   46.1492  -18.6095 N   0  0  0  0  0  0  0  0  0  0  0  0
  -17.3634   46.8737  -17.5961 C   0  0  0  0  0  0  0  0  0  0  0  0
  -18.3716   47.7530  -17.9004 C   0  0  0  0  0  0  0  0  0  0  0  0
  -19.0437   48.4768  -16.9237 C   0  0  0  0  0  0  0  0  0  0  0  0
  -18.6619   48.2853  -15.5939 C   0  0  0  0  0  0  0  0  0  0  0  0
  -19.3533   49.0314  -14.5758 C   0  0  0  0  0  0  0  0  0  0  0  0
  -19.9250   49.6507  -13.7608 N   0  0  0  0  0  0  0  0  0  0  0  0
  -17.6557   47.4112  -15.2599 C   0  0  0  0  0  0  0  0  0  0  0  0
  -17.0072   46.7042  -16.2772 C   0  0  0  0  0  0  0  0  0  0  0  0
  -18.0828   43.5190  -23.3192 C   0  0  0  0  0  0  0  0  0  0  0  0
  -18.4257   42.1719  -23.4010 C   0  0  0  0  0  0  0  0  0  0  0  0
  -19.3033   39.3202  -23.3648 N   0  0  0  0  0  0  0  0  0  0  0  0
  -19.4084   37.9973  -23.1544 C   0  0  0  0  0  0  0  0  0  0  0  0
  -20.1100   37.0185  -23.7821 N   0  0  0  0  0  0  0  0  0  0  0  0
  -20.9586   37.3035  -24.9216 C   0  0  0  0  0  0  0  0  0  0  0  0
  -20.1598   37.6752  -26.1538 C   0  0  0  0  0  0  0  0  0  0  0  0
  -21.1844   38.1184  -27.2008 C   0  0  0  0  0  0  0  0  0  0  0  0
  -19.9889   35.7680  -23.3063 C   0  0  0  0  0  0  0  0  0  0  0  0
  -20.6351   34.8361  -23.8766 O   0  0  0  0  0  0  0  0  0  0  0  0
  1  2  1  0
  2  3  1  0
  3  4  1  0
  4  5  1  0
  5  6  2  0
  5  7  1  0
  7  8  1  0
  8  9  1  0
  9 10  1  0
 10 11  2  0
 11 12  1  0
 12 13  2  0
 13 14  1  0
 14 15  1  0
 15 16  1  0
 16 17  2  0
 16 18  1  0
 18 19  1  0
 19 20  2  0
 20 21  1  0
 21 22  2  0
 22 23  1  0
 23 24  3  0
 22 25  1  0
 25 26  2  0
 13 27  1  0
 27 28  2  0
  9 29  2  0
 29 30  1  0
 30 31  1  0
 31 32  1  0
 32 33  1  0
 33 34  1  0
 31 35  1  0
 35 36  2  0
 35  4  1  0
 30  7  2  0
 28 10  1  0
 26 19  1  0
M  END
$$$$
