
     RDKit          3D

 18 20  0  0  0  0  0  0  0  0999 V2000
  -16.6628   35.3060  -21.9418 N   0  0  0  0  0  0  0  0  0  0  0  0
  -17.7575   34.4176  -21.9381 C   0  0  0  0  0  0  0  0  0  0  0  0
  -17.5528   33.1580  -21.4834 N   0  0  0  0  0  0  0  0  0  0  0  0
  -18.5795   32.2909  -21.4691 C   0  0  0  0  0  0  0  0  0  0  0  0
  -19.7783   32.7039  -21.9076 N   0  0  0  0  0  0  0  0  0  0  0  0
  -20.0358   33.9430  -22.3693 C   0  0  0  0  0  0  0  0  0  0  0  0
  -18.9910   34.8292  -22.3851 C   0  0  0  0  0  0  0  0  0  0  0  0
  -19.5419   36.0904  -22.9289 C   0  0  0  0  0  0  0  0  0  0  0  0
  -19.5290   37.1473  -21.9380 N   0  0  0  0  0  0  0  0  0  0  0  0
  -18.8058   38.3387  -22.1672 C   0  0  0  0  0  0  0  0  0  0  0  0
  -18.6285   38.8096  -23.4525 C   0  0  0  0  0  0  0  0  0  0  0  0
  -17.9370   39.9598  -23.7480 C   0  0  0  0  0  0  0  0  0  0  0  0
  -17.3828   40.6987  -22.7275 C   0  0  0  0  0  0  0  0  0  0  0  0
  -16.7107   41.8235  -23.0619 F   0  0  0  0  0  0  0  0  0  0  0  0
  -17.5451   40.2523  -21.4459 C   0  0  0  0  0  0  0  0  0  0  0  0
  -18.2453   39.0890  -21.1554 C   0  0  0  0  0  0  0  0  0  0  0  0
  -20.9267   35.8016  -23.1909 N   0  0  0  0  0  0  0  0  0  0  0  0
  -21.1671   34.6210  -22.8753 N   0  0  0  0  0  0  0  0  0  0  0  0
  1  2  1  0
  2  3  2  0
  3  4  1  0
  4  5  2  0
  5  6  1  0
  6  7  2  0
  7  8  1  0
  8  9  1  0
  9 10  1  0
 10 11  2  0
 11 12  1  0
 12 13  2  0
 13 14  1  0
 13 15  1  0
 15 16  2  0
  8 17  1  0
 17 18  2  0
  7  2  1  0
 16 10  1  0
 18  6  1  0
M  END
$$$$
