
     RDKit          3D

 19 20  0  0  0  0  0  0  0  0999 V2000
  -20.9296   17.5893  -33.7775 O   0  0  0  0  0  0  0  0  0  0  0  0
  -20.6127   16.4016  -33.1641 C   0  0  0  0  0  0  0  0  0  0  0  0
  -21.6209   15.6101  -32.5984 C   0  0  0  0  0  0  0  0  0  0  0  0
  -23.2916   16.1237  -32.6662 Cl  0  0  0  0  0  0  0  0  0  0  0  0
  -21.2549   14.4287  -31.9948 C   0  0  0  0  0  0  0  0  0  0  0  0
  -19.9414   14.0138  -31.9354 C   0  0  0  0  0  0  0  0  0  0  0  0
  -19.4843   12.4964  -31.1584 Cl  0  0  0  0  0  0  0  0  0  0  0  0
  -18.9734   14.8294  -32.5092 C   0  0  0  0  0  0  0  0  0  0  0  0
  -19.2924   16.0190  -33.1233 C   0  0  0  0  0  0  0  0  0  0  0  0
  -18.0553   17.0673  -33.8599 S   0  0  0  0  0  0  0  0  0  0  0  0
  -16.5847   17.1844  -32.8909 C   0  0  0  0  0  0  0  0  0  0  0  0
  -15.4707   16.4386  -33.2084 C   0  0  0  0  0  0  0  0  0  0  0  0
  -14.3587   16.5826  -32.4059 C   0  0  0  0  0  0  0  0  0  0  0  0
  -12.9421   15.6278  -32.8176 Cl  0  0  0  0  0  0  0  0  0  0  0  0
  -14.3197   17.4265  -31.3207 C   0  0  0  0  0  0  0  0  0  0  0  0
  -15.4235   18.1663  -31.0052 C   0  0  0  0  0  0  0  0  0  0  0  0
  -15.3736   19.2409  -29.6234 Cl  0  0  0  0  0  0  0  0  0  0  0  0
  -16.5518   18.0328  -31.8036 C   0  0  0  0  0  0  0  0  0  0  0  0
  -17.6491   18.8169  -31.4285 O   0  0  0  0  0  0  0  0  0  0  0  0
  1  2  1  0
  2  3  2  0
  3  4  1  0
  3  5  1  0
  5  6  2  0
  6  7  1  0
  6  8  1  0
  8  9  2  0
  9 10  1  0
 10 11  1  0
 11 12  2  0
 12 13  1  0
 13 14  1  0
 13 15  2  0
 15 16  1  0
 16 17  1  0
 16 18  2  0
 18 19  1  0
  9  2  1  0
 18 11  1  0
M  END
$$$$
