
     RDKit          3D

 29 32  0  0  0  0  0  0  0  0999 V2000
  -19.0371    0.3605  -35.7123 C   0  0  0  0  0  0  0  0  0  0  0  0
  -18.6187    0.0160  -34.4106 O   0  0  0  0  0  0  0  0  0  0  0  0
  -18.5618    0.9770  -33.4416 C   0  0  0  0  0  0  0  0  0  0  0  0
  -19.1898    2.1813  -33.6524 C   0  0  0  0  0  0  0  0  0  0  0  0
  -19.1741    3.1905  -32.7243 C   0  0  0  0  0  0  0  0  0  0  0  0
  -18.5069    2.9956  -31.5374 C   0  0  0  0  0  0  0  0  0  0  0  0
  -17.8758    1.7964  -31.3159 C   0  0  0  0  0  0  0  0  0  0  0  0
  -17.8934    0.7588  -32.2729 C   0  0  0  0  0  0  0  0  0  0  0  0
  -17.2011   -0.4656  -31.9493 C   0  0  0  0  0  0  0  0  0  0  0  0
  -17.8526   -1.5687  -32.0801 O   0  0  0  0  0  0  0  0  0  0  0  0
  -15.8860   -0.6382  -31.5004 N   0  0  0  0  0  0  0  0  0  0  0  0
  -14.8797   -1.3361  -32.2200 C   0  0  0  0  0  0  0  0  0  0  0  0
  -15.1791   -2.5586  -32.7820 C   0  0  0  0  0  0  0  0  0  0  0  0
  -14.2196   -3.2878  -33.4911 C   0  0  0  0  0  0  0  0  0  0  0  0
  -12.9457   -2.7822  -33.6364 C   0  0  0  0  0  0  0  0  0  0  0  0
  -12.6529   -1.5645  -33.0746 C   0  0  0  0  0  0  0  0  0  0  0  0
  -13.6139   -0.8376  -32.3661 C   0  0  0  0  0  0  0  0  0  0  0  0
  -13.3034    0.4147  -31.7814 N   0  0  0  0  0  0  0  0  0  0  0  0
  -13.7142    0.8604  -30.4719 C   0  0  0  0  0  0  0  0  0  0  0  0
  -14.0689    2.3523  -30.5389 C   0  0  0  0  0  0  0  0  0  0  0  0
  -12.8366    3.1632  -30.9116 C   0  0  0  0  0  0  0  0  0  0  0  0
  -11.7961    2.2676  -31.5373 C   0  0  0  0  0  0  0  0  0  0  0  0
  -12.4927    1.3809  -32.5437 C   0  0  0  0  0  0  0  0  0  0  0  0
  -12.2665   -3.6956  -34.3530 N   0  0  0  0  0  0  0  0  0  0  0  0
  -10.8762   -3.5331  -34.7219 C   0  0  0  0  0  0  0  0  0  0  0  0
  -13.0993   -4.7087  -34.6268 C   0  0  0  0  0  0  0  0  0  0  0  0
  -12.8037   -5.7519  -35.2875 O   0  0  0  0  0  0  0  0  0  0  0  0
  -14.3158   -4.4854  -34.1065 N   0  0  0  0  0  0  0  0  0  0  0  0
  -15.5093   -5.3277  -34.1695 C   0  0  0  0  0  0  0  0  0  0  0  0
  1  2  1  0
  2  3  1  0
  3  4  2  0
  4  5  1  0
  5  6  2  0
  6  7  1  0
  7  8  2  0
  8  9  1  0
  9 10  2  0
  9 11  1  0
 11 12  1  0
 12 13  2  0
 13 14  1  0
 14 15  2  0
 15 16  1  0
 16 17  2  0
 17 18  1  0
 18 19  1  0
 19 20  1  0
 20 21  1  0
 21 22  1  0
 22 23  1  0
 15 24  1  0
 24 25  1  0
 24 26  1  0
 26 27  2  0
 26 28  1  0
 28 29  1  0
  8  3  1  0
 17 12  1  0
 23 18  1  0
 28 14  1  0
M  END
$$$$
