
     RDKit          3D

 35 39  0  0  0  0  0  0  0  0999 V2000
  -27.8384   14.4679  -30.4141 C   0  0  0  0  0  0  0  0  0  0  0  0
  -27.1302   15.4804  -31.1583 N   0  0  0  0  0  0  0  0  0  0  0  0
  -26.3741   16.4980  -30.5155 C   0  0  0  0  0  0  0  0  0  0  0  0
  -25.2100   16.7112  -30.9320 O   0  0  0  0  0  0  0  0  0  0  0  0
  -26.9028   17.2409  -29.4558 O   0  0  0  0  0  0  0  0  0  0  0  0
  -26.1551   17.4343  -28.2695 C   0  0  1  0  0  0  0  0  0  0  0  0
  -25.8324   18.8929  -28.1671 C   0  0  0  0  0  0  0  0  0  0  0  0
  -26.5130   19.5902  -27.1625 O   0  0  0  0  0  0  0  0  0  0  0  0
  -27.7600   19.2004  -26.7696 C   0  0  0  0  0  0  0  0  0  0  0  0
  -28.7218   20.1434  -26.4547 C   0  0  0  0  0  0  0  0  0  0  0  0
  -29.9926   19.7154  -26.0552 C   0  0  0  0  0  0  0  0  0  0  0  0
  -30.2409   18.3665  -25.9901 C   0  0  0  0  0  0  0  0  0  0  0  0
  -31.5400   17.9141  -25.5965 N   0  0  0  0  0  0  0  0  0  0  0  0
  -32.6876   18.3576  -26.3199 C   0  0  0  0  0  0  0  0  0  0  0  0
  -33.9007   17.4715  -26.2055 C   0  0  0  0  0  0  0  0  0  0  0  0
  -33.6216   16.2621  -25.4831 N   0  0  0  0  0  0  0  0  0  0  0  0
  -34.6013   15.2585  -25.4958 C   0  0  0  0  0  0  0  0  0  0  0  0
  -35.9472   15.5970  -24.9244 C   0  0  0  0  0  0  0  0  0  0  0  0
  -36.0428   14.2888  -24.4586 O   0  0  0  0  0  0  0  0  0  0  0  0
  -34.6390   14.2269  -24.4240 C   0  0  0  0  0  0  0  0  0  0  0  0
  -33.0092   16.4978  -24.2209 C   0  0  0  0  0  0  0  0  0  0  0  0
  -31.6221   17.0291  -24.4800 C   0  0  0  0  0  0  0  0  0  0  0  0
  -29.2443   17.4275  -26.3156 C   0  0  0  0  0  0  0  0  0  0  0  0
  -28.0163   17.8488  -26.7011 C   0  0  0  0  0  0  0  0  0  0  0  0
  -26.9098   16.9187  -27.0634 C   0  0  2  0  0  0  0  0  0  0  0  0
  -25.9694   16.7612  -25.9894 N   0  0  0  0  0  0  0  0  0  0  0  0
  -25.4215   15.5326  -25.5449 C   0  0  0  0  0  0  0  0  0  0  0  0
  -26.1062   14.4834  -25.7198 O   0  0  0  0  0  0  0  0  0  0  0  0
  -24.1197   15.4189  -24.9018 C   0  0  0  0  0  0  0  0  0  0  0  0
  -23.4790   14.2081  -24.7592 C   0  0  0  0  0  0  0  0  0  0  0  0
  -22.2520   14.0509  -24.1626 C   0  0  0  0  0  0  0  0  0  0  0  0
  -21.5947   15.1606  -23.6639 C   0  0  0  0  0  0  0  0  0  0  0  0
  -20.3741   15.0095  -23.0687 F   0  0  0  0  0  0  0  0  0  0  0  0
  -22.2005   16.3883  -23.7855 C   0  0  0  0  0  0  0  0  0  0  0  0
  -23.4353   16.5172  -24.3905 C   0  0  0  0  0  0  0  0  0  0  0  0
  1  2  1  0
  2  3  1  0
  3  4  2  0
  3  5  1  0
  6  5  1  6
  6  7  1  0
  7  8  1  0
  8  9  1  0
  9 10  2  0
 10 11  1  0
 11 12  2  0
 12 13  1  0
 13 14  1  0
 14 15  1  0
 15 16  1  0
 16 17  1  0
 17 18  1  0
 18 19  1  0
 19 20  1  0
 16 21  1  0
 21 22  1  0
 12 23  1  0
 23 24  2  0
 24 25  1  0
 25 26  1  1
 26 27  1  0
 27 28  2  0
 27 29  1  0
 29 30  2  0
 30 31  1  0
 31 32  2  0
 32 33  1  0
 32 34  1  0
 34 35  2  0
 25  6  1  0
 35 29  1  0
 24  9  1  0
 22 13  1  0
 20 17  1  0
M  END
$$$$
