
     RDKit          3D

 19 20  0  0  0  0  0  0  0  0999 V2000
  -20.4906   31.7078  -23.4909 O   0  0  0  0  0  0  0  0  0  0  0  0
  -20.1657   32.1437  -22.3590 C   0  0  0  0  0  0  0  0  0  0  0  0
  -20.1645   31.2349  -21.3019 O   0  0  0  0  0  0  0  0  0  0  0  0
  -19.8015   33.5498  -22.1516 C   0  0  0  0  0  0  0  0  0  0  0  0
  -19.4157   34.1674  -20.9909 C   0  0  0  0  0  0  0  0  0  0  0  0
  -19.1865   35.4846  -21.3269 C   0  0  0  0  0  0  0  0  0  0  0  0
  -19.4406   35.6200  -22.6759 C   0  0  0  0  0  0  0  0  0  0  0  0
  -19.3279   36.8432  -23.4618 C   0  0  0  0  0  0  0  0  0  0  0  0
  -20.1850   37.0275  -24.5437 C   0  0  0  0  0  0  0  0  0  0  0  0
  -20.1132   38.1599  -25.3071 C   0  0  0  0  0  0  0  0  0  0  0  0
  -19.1883   39.1335  -25.0121 C   0  0  0  0  0  0  0  0  0  0  0  0
  -18.3444   38.9413  -23.9388 C   0  0  0  0  0  0  0  0  0  0  0  0
  -18.3972   37.8220  -23.1641 C   0  0  0  0  0  0  0  0  0  0  0  0
  -17.5707   37.5962  -22.0851 O   0  0  0  0  0  0  0  0  0  0  0  0
  -17.5337   38.3372  -20.9103 C   0  0  0  0  0  0  0  0  0  0  0  0
  -18.7431   38.0931  -20.2413 F   0  0  0  0  0  0  0  0  0  0  0  0
  -17.4866   39.7017  -21.1177 F   0  0  0  0  0  0  0  0  0  0  0  0
  -16.5429   37.9146  -20.0297 F   0  0  0  0  0  0  0  0  0  0  0  0
  -19.7990   34.4413  -23.1011 O   0  0  0  0  0  0  0  0  0  0  0  0
  1  2  2  0
  2  3  1  0
  2  4  1  0
  4  5  2  0
  5  6  1  0
  6  7  2  0
  7  8  1  0
  8  9  2  0
  9 10  1  0
 10 11  2  0
 11 12  1  0
 12 13  2  0
 13 14  1  0
 14 15  1  0
 15 16  1  0
 15 17  1  0
 15 18  1  0
  7 19  1  0
 19  4  1  0
 13  8  1  0
M  END
$$$$
