
     RDKit          3D

 11  9  0  0  0  0  0  0  0  0999 V2000
  -18.7255   33.5351  -22.3283 C   0  0  0  0  0  0  0  0  0  0  0  0
  -18.7902   34.8434  -22.8939 N   0  0  0  0  0  0  0  0  0  0  0  0
  -18.3055   35.8795  -22.0070 C   0  0  0  0  0  0  0  0  0  0  0  0
  -18.4379   37.2133  -22.7520 C   0  0  0  0  0  0  0  0  0  0  0  0
  -17.9480   38.3293  -21.8770 C   0  0  0  0  0  0  0  0  0  0  0  0
  -18.6820   39.0799  -20.9830 C   0  0  0  0  0  0  0  0  0  0  0  0
  -17.8603   39.9694  -20.4097 N   0  0  0  0  0  0  0  0  0  0  0  0
  -16.6239   39.8091  -20.9110 C   0  0  0  0  0  0  0  0  0  0  0  0
  -16.6875   38.8068  -21.8048 N   0  0  0  0  0  0  0  0  0  0  0  0
  -18.0558   37.5333  -21.5898 Cl  0  0  0  0  0  0  0  0  0  0  0  0
  -18.0567   37.5301  -21.5910 Cl  0  0  0  0  0  0  0  0  0  0  0  0
  1  2  1  0
  2  3  1  0
  3  4  1  0
  4  5  1  0
  5  6  2  0
  6  7  1  0
  7  8  1  0
  8  9  2  0
  9  5  1  0
M  END
$$$$
