
     RDKit          3D

 30 33  0  0  0  0  0  0  0  0999 V2000
  -15.2852   45.3653  -18.3337 C   0  0  0  0  0  0  0  0  0  0  0  0
  -14.8276   44.5517  -19.3950 O   0  0  0  0  0  0  0  0  0  0  0  0
  -15.7160   43.7552  -20.1003 C   0  0  0  0  0  0  0  0  0  0  0  0
  -17.0761   43.7617  -19.9015 C   0  0  0  0  0  0  0  0  0  0  0  0
  -17.9315   42.9557  -20.6212 C   0  0  0  0  0  0  0  0  0  0  0  0
  -17.4485   42.0848  -21.5973 C   0  0  0  0  0  0  0  0  0  0  0  0
  -18.3755   41.2444  -22.3297 C   0  0  0  0  0  0  0  0  0  0  0  0
  -19.4533   41.6279  -23.0960 C   0  0  0  0  0  0  0  0  0  0  0  0
  -19.9218   43.0251  -23.3687 C   0  0  0  0  0  0  0  0  0  0  0  0
  -19.9931   40.4808  -23.5528 N   0  0  0  0  0  0  0  0  0  0  0  0
  -19.3204   39.4497  -23.1180 N   0  0  0  0  0  0  0  0  0  0  0  0
  -19.4812   38.1217  -23.3131 C   0  0  0  0  0  0  0  0  0  0  0  0
  -20.5780   37.7026  -24.1128 N   0  0  0  0  0  0  0  0  0  0  0  0
  -20.4331   37.7020  -25.5409 C   0  0  0  0  0  0  0  0  0  0  0  0
  -20.8833   39.0112  -26.0962 C   0  0  0  0  0  0  0  0  0  0  0  0
  -22.0797   38.8649  -26.8939 N   0  0  0  0  0  0  0  0  0  0  0  0
  -22.1472   40.0298  -27.7627 C   0  0  0  0  0  0  0  0  0  0  0  0
  -23.1487   39.8226  -28.8854 C   0  0  0  0  0  0  0  0  0  0  0  0
  -22.7364   38.7813  -29.7275 O   0  0  0  0  0  0  0  0  0  0  0  0
  -21.7607   37.9991  -29.1290 C   0  0  0  0  0  0  0  0  0  0  0  0
  -22.0371   37.6549  -27.6981 C   0  0  0  0  0  0  0  0  0  0  0  0
  -18.6107   37.2295  -22.7338 C   0  0  0  0  0  0  0  0  0  0  0  0
  -17.5598   37.6518  -21.9444 C   0  0  0  0  0  0  0  0  0  0  0  0
  -16.6239   36.6725  -21.3243 C   0  0  0  0  0  0  0  0  0  0  0  0
  -17.4329   38.9777  -21.7726 N   0  0  0  0  0  0  0  0  0  0  0  0
  -18.2968   39.8561  -22.3485 C   0  0  0  0  0  0  0  0  0  0  0  0
  -16.0902   42.0749  -21.7995 C   0  0  0  0  0  0  0  0  0  0  0  0
  -15.2283   42.8872  -21.0743 C   0  0  0  0  0  0  0  0  0  0  0  0
  -13.8576   42.8767  -21.2771 O   0  0  0  0  0  0  0  0  0  0  0  0
  -13.2382   43.9342  -21.9786 C   0  0  0  0  0  0  0  0  0  0  0  0
  1  2  1  0
  2  3  1  0
  3  4  2  0
  4  5  1  0
  5  6  2  0
  6  7  1  0
  7  8  1  0
  8  9  1  0
  8 10  2  0
 10 11  1  0
 11 12  1  0
 12 13  1  0
 13 14  1  0
 14 15  1  0
 15 16  1  0
 16 17  1  0
 17 18  1  0
 18 19  1  0
 19 20  1  0
 20 21  1  0
 12 22  2  0
 22 23  1  0
 23 24  1  0
 23 25  2  0
 25 26  1  0
  6 27  1  0
 27 28  2  0
 28 29  1  0
 29 30  1  0
 28  3  1  0
 26  7  2  0
 26 11  1  0
 21 16  1  0
M  END
$$$$
