
     RDKit          3D

 30 32  0  0  0  0  0  0  0  0999 V2000
  -22.9423   14.1280  -34.4333 C   0  0  0  0  0  0  0  0  0  0  0  0
  -21.8277   14.8708  -33.7764 C   0  0  0  0  0  0  0  0  0  0  0  0
  -21.5487   16.1437  -34.3896 N   0  0  0  0  0  0  0  0  0  0  0  0
  -20.6048   16.3226  -35.4703 C   0  0  0  0  0  0  0  0  0  0  0  0
  -19.2101   16.6176  -34.9807 C   0  0  0  0  0  0  0  0  0  0  0  0
  -22.2449   17.2814  -33.8985 C   0  0  0  0  0  0  0  0  0  0  0  0
  -22.0453   18.4402  -34.3967 O   0  0  0  0  0  0  0  0  0  0  0  0
  -23.2007   17.2040  -32.8299 C   0  0  0  0  0  0  0  0  0  0  0  0
  -24.4990   16.8263  -33.0791 C   0  0  0  0  0  0  0  0  0  0  0  0
  -25.4512   16.7375  -32.1111 C   0  0  0  0  0  0  0  0  0  0  0  0
  -25.1100   17.0420  -30.7899 C   0  0  0  0  0  0  0  0  0  0  0  0
  -26.0593   16.7801  -29.7320 C   0  0  0  0  0  0  0  0  0  0  0  0
  -26.6842   15.5989  -29.7868 C   0  0  0  0  0  0  0  0  0  0  0  0
  -27.6848   15.1312  -28.8143 C   0  0  0  0  0  0  0  0  0  0  0  0
  -27.1694   13.8502  -28.1941 C   0  0  0  0  0  0  0  0  0  0  0  0
  -28.2499   13.0866  -27.4823 C   0  0  0  0  0  0  0  0  0  0  0  0
  -29.3415   12.8376  -28.3835 N   0  0  0  0  0  0  0  0  0  0  0  0
  -29.9621   14.0937  -28.7247 C   0  0  0  0  0  0  0  0  0  0  0  0
  -28.9884   14.9076  -29.5494 C   0  0  0  0  0  0  0  0  0  0  0  0
  -27.9136   16.0404  -27.7880 O   0  0  0  0  0  0  0  0  0  0  0  0
  -27.3496   17.2866  -27.6742 C   0  0  0  0  0  0  0  0  0  0  0  0
  -27.6817   18.1566  -26.6610 C   0  0  0  0  0  0  0  0  0  0  0  0
  -27.1430   19.4138  -26.5412 C   0  0  0  0  0  0  0  0  0  0  0  0
  -26.2352   19.8131  -27.4804 C   0  0  0  0  0  0  0  0  0  0  0  0
  -25.8883   18.9349  -28.5140 C   0  0  0  0  0  0  0  0  0  0  0  0
  -24.9726   19.3883  -29.4660 O   0  0  0  0  0  0  0  0  0  0  0  0
  -26.4064   17.6709  -28.6480 C   0  0  0  0  0  0  0  0  0  0  0  0
  -23.8145   17.4165  -30.5346 C   0  0  0  0  0  0  0  0  0  0  0  0
  -22.8460   17.5039  -31.5468 C   0  0  0  0  0  0  0  0  0  0  0  0
  -24.6353   16.1581  -31.2758 Cl  0  0  0  0  0  0  0  0  0  0  0  0
  1  2  1  0
  2  3  1  0
  3  4  1  0
  4  5  1  0
  3  6  1  0
  6  7  2  0
  6  8  1  0
  8  9  2  0
  9 10  1  0
 10 11  2  0
 11 12  1  0
 12 13  2  0
 13 14  1  0
 14 15  1  0
 15 16  1  0
 16 17  1  0
 17 18  1  0
 18 19  1  0
 14 20  1  0
 20 21  1  0
 21 22  2  0
 22 23  1  0
 23 24  2  0
 24 25  1  0
 25 26  1  0
 25 27  2  0
 11 28  1  0
 28 29  2  0
 29  8  1  0
 27 12  1  0
 19 14  1  0
 27 21  1  0
M  END
$$$$
