
     RDKit          3D

 22 22  0  0  0  0  0  0  0  0999 V2000
  -17.1783   34.5659  -24.3208 O   0  0  0  0  0  0  0  0  0  0  0  0
  -17.1940   34.8345  -22.8159 S   0  0  0  0  0  6  0  0  0  0  0  0
  -16.1861   33.9161  -22.1502 O   0  0  0  0  0  0  0  0  0  0  0  0
  -16.7657   36.4112  -22.4511 N   0  0  0  0  0  0  0  0  0  0  0  0
  -17.6572   37.4695  -22.6640 C   0  0  2  0  0  0  0  0  0  0  0  0
  -17.6774   37.8840  -24.1561 C   0  0  0  0  0  0  0  0  0  0  0  0
  -18.4703   37.0184  -24.8752 O   0  0  0  0  0  0  0  0  0  0  0  0
  -17.4475   38.7324  -21.9132 C   0  0  0  0  0  0  0  0  0  0  0  0
  -18.3774   39.8666  -22.2571 C   0  0  0  0  0  0  0  0  0  0  0  0
  -18.4014   40.0050  -23.6258 F   0  0  0  0  0  0  0  0  0  0  0  0
  -18.0867   41.0371  -21.5828 F   0  0  0  0  0  0  0  0  0  0  0  0
  -19.6914   39.5190  -21.8714 F   0  0  0  0  0  0  0  0  0  0  0  0
  -17.3990   38.5873  -20.4121 C   0  0  0  0  0  0  0  0  0  0  0  0
  -16.1255   38.7486  -19.9712 F   0  0  0  0  0  0  0  0  0  0  0  0
  -18.3365   39.3780  -19.7566 F   0  0  0  0  0  0  0  0  0  0  0  0
  -17.8120   37.2750  -20.1161 F   0  0  0  0  0  0  0  0  0  0  0  0
  -18.7653   34.3693  -22.1702 C   0  0  0  0  0  0  0  0  0  0  0  0
  -19.0535   33.9767  -20.8723 C   0  0  0  0  0  0  0  0  0  0  0  0
  -20.3154   33.6579  -20.5610 C   0  0  0  0  0  0  0  0  0  0  0  0
  -21.3020   33.7116  -21.4799 C   0  0  0  0  0  0  0  0  0  0  0  0
  -22.9966   33.4013  -21.5136 Cl  0  0  0  0  0  0  0  0  0  0  0  0
  -20.3090   34.2832  -22.9552 S   0  0  0  0  0  0  0  0  0  0  0  0
  1  2  2  0
  2  3  2  0
  2  4  1  0
  4  5  1  0
  5  6  1  6
  6  7  1  0
  5  8  1  0
  8  9  1  0
  9 10  1  0
  9 11  1  0
  9 12  1  0
  8 13  1  0
 13 14  1  0
 13 15  1  0
 13 16  1  0
  2 17  1  0
 17 18  2  0
 18 19  1  0
 19 20  2  0
 20 21  1  0
 20 22  1  0
 22 17  1  0
M  END
$$$$
