
     RDKit          3D

 34 38  0  0  0  0  0  0  0  0999 V2000
   -4.1957    1.2182  -34.2300 C   0  0  0  0  0  0  0  0  0  0  0  0
   -5.0266    0.8931  -33.0784 N   0  0  0  0  0  0  0  0  0  0  0  0
   -4.4509    1.6040  -31.9392 C   0  0  0  0  0  0  0  0  0  0  0  0
   -6.3664    1.4323  -33.2746 C   0  0  0  0  0  0  0  0  0  0  0  0
   -6.8568    1.1636  -34.6818 C   0  0  0  0  0  0  0  0  0  0  0  0
   -7.8851    0.0616  -34.6405 C   0  0  0  0  0  0  0  0  0  0  0  0
   -9.1394    0.4671  -35.0907 O   0  0  0  0  0  0  0  0  0  0  0  0
  -10.3041    0.4459  -34.3261 C   0  0  0  0  0  0  0  0  0  0  0  0
  -11.0379   -0.7204  -34.3066 C   0  0  0  0  0  0  0  0  0  0  0  0
  -12.2131   -0.7755  -33.5487 C   0  0  0  0  0  0  0  0  0  0  0  0
  -12.6448    0.3103  -32.8270 C   0  0  0  0  0  0  0  0  0  0  0  0
  -13.8701    0.2636  -32.0342 C   0  0  0  0  0  0  0  0  0  0  0  0
  -13.7969    0.3531  -30.6615 C   0  0  0  0  0  0  0  0  0  0  0  0
  -14.9329    0.3097  -29.9111 C   0  0  0  0  0  0  0  0  0  0  0  0
  -16.1838    0.1753  -30.5089 C   0  0  0  0  0  0  0  0  0  0  0  0
  -17.2825    0.1340  -29.7316 N   0  0  0  0  0  0  0  0  0  0  0  0
  -18.4694    0.0038  -30.3086 C   0  0  0  0  0  0  0  0  0  0  0  0
  -18.6186   -0.0898  -31.6643 C   0  0  0  0  0  0  0  0  0  0  0  0
  -17.4829   -0.0483  -32.4882 C   0  0  0  0  0  0  0  0  0  0  0  0
  -16.2335    0.0874  -31.8947 C   0  0  0  0  0  0  0  0  0  0  0  0
  -15.1103    0.1283  -32.6630 C   0  0  0  0  0  0  0  0  0  0  0  0
  -17.8517   -0.1528  -33.7676 N   0  0  0  0  0  0  0  0  0  0  0  0
  -17.0772   -0.1549  -34.9745 C   0  0  0  0  0  0  0  0  0  0  0  0
  -16.9527    1.0927  -35.7691 C   0  0  0  0  0  0  0  0  0  0  0  0
  -16.6899    0.6838  -37.2073 C   0  0  0  0  0  0  0  0  0  0  0  0
  -16.7169   -0.6781  -37.4085 O   0  0  0  0  0  0  0  0  0  0  0  0
  -15.7671   -1.3562  -36.6567 C   0  0  0  0  0  0  0  0  0  0  0  0
  -16.0950   -1.2565  -35.1766 C   0  0  0  0  0  0  0  0  0  0  0  0
  -19.2335   -0.2601  -33.7078 C   0  0  0  0  0  0  0  0  0  0  0  0
  -19.9792   -0.3788  -34.7030 O   0  0  0  0  0  0  0  0  0  0  0  0
  -19.6800   -0.2224  -32.4695 N   0  0  0  0  0  0  0  0  0  0  0  0
  -21.0494   -0.3036  -31.9813 C   0  0  0  0  0  0  0  0  0  0  0  0
  -11.8742    1.4426  -32.8845 C   0  0  0  0  0  0  0  0  0  0  0  0
  -10.7314    1.4910  -33.6237 N   0  0  0  0  0  0  0  0  0  0  0  0
  1  2  1  0
  2  3  1  0
  2  4  1  0
  4  5  1  0
  5  6  1  0
  6  7  1  0
  7  8  1  0
  8  9  2  0
  9 10  1  0
 10 11  2  0
 11 12  1  0
 12 13  2  0
 13 14  1  0
 14 15  2  0
 15 16  1  0
 16 17  2  0
 17 18  1  0
 18 19  2  0
 19 20  1  0
 20 21  2  0
 19 22  1  0
 22 23  1  0
 23 24  1  0
 24 25  1  0
 25 26  1  0
 26 27  1  0
 27 28  1  0
 22 29  1  0
 29 30  2  0
 29 31  1  0
 31 32  1  0
 11 33  1  0
 33 34  2  0
 34  8  1  0
 21 12  1  0
 28 23  1  0
 20 15  1  0
 31 18  1  0
M  END
$$$$
