
     RDKit          3D

 12 12  0  0  0  0  0  0  0  0999 V2000
  -17.4372   40.4849  -21.2915 O   0  0  0  0  0  0  0  0  0  0  0  0
  -18.2548   39.6075  -20.9143 C   0  0  0  0  0  0  0  0  0  0  0  0
  -19.2105   39.9642  -19.9786 O   0  0  0  0  0  0  0  0  0  0  0  0
  -18.1988   38.2555  -21.4456 C   0  0  0  0  0  0  0  0  0  0  0  0
  -17.0878   37.7669  -22.0939 C   0  0  0  0  0  0  0  0  0  0  0  0
  -17.0808   36.4804  -22.5801 C   0  0  0  0  0  0  0  0  0  0  0  0
  -18.1763   35.6331  -22.4400 C   0  0  0  0  0  0  0  0  0  0  0  0
  -18.1689   34.2675  -22.9561 C   0  0  0  0  0  0  0  0  0  0  0  0
  -19.0519   33.4594  -22.6338 O   0  0  0  0  0  0  0  0  0  0  0  0
  -17.1759   33.8300  -23.8222 O   0  0  0  0  0  0  0  0  0  0  0  0
  -19.2753   36.1345  -21.7920 C   0  0  0  0  0  0  0  0  0  0  0  0
  -19.3028   37.4341  -21.2923 C   0  0  0  0  0  0  0  0  0  0  0  0
  1  2  2  0
  2  3  1  0
  2  4  1  0
  4  5  2  0
  5  6  1  0
  6  7  2  0
  7  8  1  0
  8  9  2  0
  8 10  1  0
  7 11  1  0
 11 12  2  0
 12  4  1  0
M  END
$$$$
