
     RDKit          3D

 20 22  0  0  0  0  0  0  0  0999 V2000
   -9.3745    1.7877  -15.5076 C   0  0  0  0  0  0  0  0  0  0  0  0
   -9.7954    2.4596  -14.2120 C   0  0  0  0  0  0  0  0  0  0  0  0
   -9.4602    1.5674  -13.0623 C   0  0  0  0  0  0  0  0  0  0  0  0
   -9.1383    3.7919  -14.1150 C   0  0  0  0  0  0  0  0  0  0  0  0
   -7.9089    4.0482  -14.6398 C   0  0  0  0  0  0  0  0  0  0  0  0
   -7.3594    5.3292  -14.5059 C   0  0  0  0  0  0  0  0  0  0  0  0
   -8.0067    6.3442  -13.8664 C   0  0  0  0  0  0  0  0  0  0  0  0
   -7.4061    7.6663  -13.7449 C   0  0  0  0  0  0  0  0  0  0  0  0
   -7.8253    8.6210  -12.8530 C   0  0  0  0  0  0  0  0  0  0  0  0
   -7.2253    9.8845  -12.7613 C   0  0  0  0  0  0  0  0  0  0  0  0
   -7.6313   10.7352  -11.9360 O   0  0  0  0  0  0  0  0  0  0  0  0
   -6.1789   10.1593  -13.6047 C   0  0  0  0  0  0  0  0  0  0  0  0
   -5.5389   11.3878  -13.5690 C   0  0  0  0  0  0  0  0  0  0  0  0
   -4.4888   11.6800  -14.4068 C   0  0  0  0  0  0  0  0  0  0  0  0
   -4.1042   10.6799  -15.2897 C   0  0  0  0  0  0  0  0  0  0  0  0
   -4.7255    9.4643  -15.3364 C   0  0  0  0  0  0  0  0  0  0  0  0
   -5.7781    9.1644  -14.5001 C   0  0  0  0  0  0  0  0  0  0  0  0
   -6.3848    8.0056  -14.5311 O   0  0  0  0  0  0  0  0  0  0  0  0
   -9.2592    6.0795  -13.3329 C   0  0  0  0  0  0  0  0  0  0  0  0
   -9.7973    4.8185  -13.4660 C   0  0  0  0  0  0  0  0  0  0  0  0
  1  2  1  0
  2  3  1  0
  2  4  1  0
  4  5  2  0
  5  6  1  0
  6  7  2  0
  7  8  1  0
  8  9  2  0
  9 10  1  0
 10 11  2  0
 10 12  1  0
 12 13  2  0
 13 14  1  0
 14 15  2  0
 15 16  1  0
 16 17  2  0
 17 18  1  0
  7 19  1  0
 19 20  2  0
 20  4  1  0
 18  8  1  0
 17 12  1  0
M  END
$$$$
