
     RDKit          3D

 22 25  0  0  0  0  0  0  0  0999 V2000
  -18.8257   18.2946  -32.6710 C   0  0  0  0  0  0  0  0  0  0  0  0
  -19.6920   17.3315  -33.1554 C   0  0  0  0  0  0  0  0  0  0  0  0
  -19.2120   16.0595  -33.3866 C   0  0  0  0  0  0  0  0  0  0  0  0
  -20.1052   15.0471  -33.8845 N   0  0  0  0  0  0  0  0  0  0  0  0
  -21.5290   15.2542  -33.9927 C   0  0  0  0  0  0  0  0  0  0  0  0
  -22.1896   15.6679  -32.7120 C   0  0  0  0  0  0  0  0  0  0  0  0
  -23.0486   14.5924  -32.1022 C   0  0  0  0  0  0  0  0  0  0  0  0
  -23.9150   13.9385  -33.0192 N   0  0  0  0  0  0  0  0  0  0  0  0
  -23.7155   14.2740  -34.3941 C   0  0  0  0  0  0  0  0  0  0  0  0
  -22.2157   14.1016  -34.6703 C   0  0  0  0  0  0  0  0  0  0  0  0
  -17.9196   15.7655  -33.1432 N   0  0  0  0  0  0  0  0  0  0  0  0
  -17.0558   16.6652  -32.6771 C   0  0  0  0  0  0  0  0  0  0  0  0
  -15.6400   16.3299  -32.4141 C   0  0  0  0  0  0  0  0  0  0  0  0
  -14.5877   17.1754  -32.6517 C   0  0  0  0  0  0  0  0  0  0  0  0
  -13.4745   16.5210  -32.2903 N   0  0  0  0  0  0  0  0  0  0  0  0
  -13.7782   15.2805  -31.8275 C   0  0  0  0  0  0  0  0  0  0  0  0
  -13.0204   14.2375  -31.3451 C   0  0  0  0  0  0  0  0  0  0  0  0
  -13.6083   13.0654  -30.9356 C   0  0  0  0  0  0  0  0  0  0  0  0
  -14.9788   12.9723  -31.0249 C   0  0  0  0  0  0  0  0  0  0  0  0
  -15.7135   14.0391  -31.5146 C   0  0  0  0  0  0  0  0  0  0  0  0
  -15.1276   15.1971  -31.9188 N   0  0  0  0  0  0  0  0  0  0  0  0
  -17.5263   17.9396  -32.4426 C   0  0  0  0  0  0  0  0  0  0  0  0
  1  2  2  0
  2  3  1  0
  3  4  1  0
  4  5  1  0
  5  6  1  0
  6  7  1  0
  7  8  1  0
  8  9  1  0
  9 10  1  0
  3 11  2  0
 11 12  1  0
 12 13  1  0
 13 14  2  0
 14 15  1  0
 15 16  2  0
 16 17  1  0
 17 18  2  0
 18 19  1  0
 19 20  2  0
 20 21  1  0
 12 22  2  0
 22  1  1  0
 10  5  1  0
 21 13  1  0
 21 16  1  0
M  END
$$$$
