
     RDKit          3D

 23 27  0  0  0  0  0  0  0  0999 V2000
  -23.6380   23.7472  -45.0474 C   0  0  0  0  0  0  0  0  0  0  0  0
  -23.5428   22.4399  -44.5805 C   0  0  0  0  0  0  0  0  0  0  0  0
  -23.2037   22.1462  -43.2830 C   0  0  0  0  0  0  0  0  0  0  0  0
  -22.9542   23.1992  -42.4352 C   0  0  0  0  0  0  0  0  0  0  0  0
  -22.5850   22.9587  -41.0294 C   0  0  0  0  0  0  0  0  0  0  0  0
  -22.9413   23.7278  -39.9332 C   0  0  0  0  0  0  0  0  0  0  0  0
  -22.4015   23.1623  -38.8550 N   0  0  0  0  0  0  0  0  0  0  0  0
  -21.7187   22.0667  -39.2271 C   0  0  0  0  0  0  0  0  0  0  0  0
  -21.8424   21.9566  -40.5686 N   0  0  0  0  0  0  0  0  0  0  0  0
  -20.9790   21.1636  -38.3337 C   0  0  0  0  0  0  0  0  0  0  0  0
  -21.0240   21.5426  -36.9099 C   0  0  0  0  0  0  0  0  0  0  0  0
  -21.7854   22.7462  -36.5770 C   0  0  0  0  0  0  0  0  0  0  0  0
  -21.8142   23.0864  -35.2182 C   0  0  0  0  0  0  0  0  0  0  0  0
  -22.4875   24.1846  -34.7697 C   0  0  0  0  0  0  0  0  0  0  0  0
  -23.1471   24.9557  -35.7222 C   0  0  0  0  0  0  0  0  0  0  0  0
  -23.8277   26.0657  -35.2696 C   0  0  0  0  0  0  0  0  0  0  0  0
  -24.5051   26.8766  -36.1602 C   0  0  0  0  0  0  0  0  0  0  0  0
  -24.4621   26.5204  -37.4954 C   0  0  0  0  0  0  0  0  0  0  0  0
  -23.7892   25.4332  -37.8963 N   0  0  0  0  0  0  0  0  0  0  0  0
  -23.1297   24.6326  -37.0797 C   0  0  0  0  0  0  0  0  0  0  0  0
  -22.4472   23.5268  -37.5001 C   0  0  0  0  0  0  0  0  0  0  0  0
  -23.0457   24.4943  -42.8872 C   0  0  0  0  0  0  0  0  0  0  0  0
  -23.3861   24.7887  -44.1896 C   0  0  0  0  0  0  0  0  0  0  0  0
  1  2  2  0
  2  3  1  0
  3  4  2  0
  4  5  1  0
  5  6  2  0
  6  7  1  0
  7  8  1  0
  8  9  2  0
  8 10  1  0
 10 11  1  0
 11 12  1  0
 12 13  2  0
 13 14  1  0
 14 15  2  0
 15 16  1  0
 16 17  2  0
 17 18  1  0
 18 19  2  0
 19 20  1  0
 20 21  2  0
  4 22  1  0
 22 23  2  0
 23  1  1  0
  9  5  1  0
 21 12  1  0
 21  7  1  0
 20 15  1  0
M  END
$$$$
