
     RDKit          3D

 22 24  0  0  0  0  0  0  0  0999 V2000
  -16.2501   15.3753  -31.4404 Cl  0  0  0  0  0  0  0  0  0  0  0  0
  -18.5618   15.5207  -30.2810 O   0  0  0  0  0  0  0  0  0  0  0  0
  -17.4100   15.3778  -30.7462 C   0  0  0  0  0  0  0  0  0  0  0  0
  -17.2230   15.9212  -32.0494 N   0  0  0  0  0  0  0  0  0  0  0  0
  -18.1989   16.5762  -32.8122 C   0  0  1  0  0  0  0  0  0  0  0  0
  -17.8018   18.0390  -32.9653 C   0  0  0  0  0  0  0  0  0  0  0  0
  -18.3528   18.5378  -34.1885 N   0  0  0  0  0  0  0  0  0  0  0  0
  -19.7381   18.1534  -34.3742 C   0  0  0  0  0  0  0  0  0  0  0  0
  -19.8770   16.6651  -34.5418 C   0  0  0  0  0  0  0  0  0  0  0  0
  -18.5219   16.0398  -34.1546 C   0  0  0  0  0  0  0  0  0  0  0  0
  -17.5701   16.4938  -35.2432 C   0  0  0  0  0  0  0  0  0  0  0  0
  -17.5334   17.9962  -35.2800 C   0  0  0  0  0  0  0  0  0  0  0  0
  -16.3617   14.7181  -30.0219 C   0  0  0  0  0  0  0  0  0  0  0  0
  -16.2300   14.1192  -28.8129 C   0  0  0  0  0  0  0  0  0  0  0  0
  -15.0809   13.5822  -28.4225 C   0  0  0  0  0  0  0  0  0  0  0  0
  -14.8265   12.9293  -27.1794 C   0  0  0  0  0  0  0  0  0  0  0  0
  -13.5904   12.4224  -26.9127 C   0  0  0  0  0  0  0  0  0  0  0  0
  -12.5271   12.4888  -27.7718 C   0  0  0  0  0  0  0  0  0  0  0  0
  -12.7556   13.1200  -28.9855 C   0  0  0  0  0  0  0  0  0  0  0  0
  -11.4919   13.2881  -30.1996 Cl  0  0  0  0  0  0  0  0  0  0  0  0
  -13.9612   13.6039  -29.2228 C   0  0  0  0  0  0  0  0  0  0  0  0
  -14.6609   14.4986  -30.6904 S   0  0  0  0  0  0  0  0  0  0  0  0
  2  3  2  0
  3  4  1  0
  5  4  1  6
  5  6  1  0
  6  7  1  0
  7  8  1  0
  8  9  1  0
  9 10  1  0
 10 11  1  0
 11 12  1  0
  3 13  1  0
 13 14  2  0
 14 15  1  0
 15 16  2  0
 16 17  1  0
 17 18  2  0
 18 19  1  0
 19 20  1  0
 19 21  2  0
 21 22  1  0
 10  5  1  0
 22 13  1  0
 12  7  1  0
 21 15  1  0
M  END
$$$$
