
     RDKit          3D

 16 18  0  0  0  0  0  0  0  0999 V2000
  -20.8011   50.2386  -17.8682 C   0  0  0  0  0  0  0  0  0  0  0  0
  -20.3819   48.8685  -18.1321 N   0  0  0  0  0  0  0  0  0  0  0  0
  -20.5910   47.9782  -17.0117 C   0  0  0  0  0  0  0  0  0  0  0  0
  -21.1625   48.4607  -15.8422 C   0  0  0  0  0  0  0  0  0  0  0  0
  -21.4121   47.6973  -14.7195 C   0  0  0  0  0  0  0  0  0  0  0  0
  -21.0649   46.3725  -14.7822 C   0  0  0  0  0  0  0  0  0  0  0  0
  -20.5040   45.8526  -15.9011 C   0  0  0  0  0  0  0  0  0  0  0  0
  -20.2669   46.6448  -17.0094 C   0  0  0  0  0  0  0  0  0  0  0  0
  -19.5291   45.9242  -18.4543 S   0  0  0  0  0  0  0  0  0  0  0  0
  -19.3970   47.2083  -19.6631 C   0  0  0  0  0  0  0  0  0  0  0  0
  -18.8601   46.8490  -20.8703 C   0  0  0  0  0  0  0  0  0  0  0  0
  -18.7169   47.7813  -21.8717 C   0  0  0  0  0  0  0  0  0  0  0  0
  -18.1623   47.4047  -23.1152 N   0  0  0  0  0  0  0  0  0  0  0  0
  -19.1312   49.0532  -21.5973 C   0  0  0  0  0  0  0  0  0  0  0  0
  -19.6838   49.4340  -20.3624 C   0  0  0  0  0  0  0  0  0  0  0  0
  -19.8237   48.4815  -19.3562 C   0  0  0  0  0  0  0  0  0  0  0  0
  1  2  1  0
  2  3  1  0
  3  4  2  0
  4  5  1  0
  5  6  2  0
  6  7  1  0
  7  8  2  0
  8  9  1  0
  9 10  1  0
 10 11  2  0
 11 12  1  0
 12 13  1  0
 12 14  2  0
 14 15  1  0
 15 16  2  0
 16  2  1  0
  8  3  1  0
 16 10  1  0
M  END
$$$$
