
     RDKit          3D

 29 29  0  0  0  0  0  0  0  0999 V2000
  -31.7581   16.2489  -26.0840 Cl  0  0  0  0  0  0  0  0  0  0  0  0
  -31.7496   16.2510  -26.0858 Cl  0  0  0  0  0  0  0  0  0  0  0  0
  -29.9115   19.2790  -27.5465 O   0  0  0  0  0  0  0  0  0  0  0  0
  -28.9918   18.5146  -28.5017 S   0  0  0  0  0  6  0  0  0  0  0  0
  -29.0153   19.3582  -29.7785 O   0  0  0  0  0  0  0  0  0  0  0  0
  -29.7098   17.0400  -28.8596 N   0  0  0  0  0  0  0  0  0  0  0  0
  -30.8833   16.7193  -28.1507 C   0  0  0  0  0  0  0  0  0  0  0  0
  -31.4525   15.3608  -28.5688 C   0  0  0  0  0  0  0  0  0  0  0  0
  -32.6356   15.0735  -27.8295 N   0  0  0  0  0  0  0  0  0  0  0  0
  -32.4492   14.8226  -26.4304 C   0  0  0  0  0  0  0  0  0  0  0  0
  -33.8217   14.5171  -25.8800 C   0  0  0  0  0  0  0  0  0  0  0  0
  -34.3761   15.2347  -24.9267 C   0  0  0  0  0  0  0  0  0  0  0  0
  -35.6797   15.0204  -24.3379 C   0  0  0  0  0  0  0  0  0  0  0  0
  -36.1213   15.8660  -23.3340 C   0  0  0  0  0  0  0  0  0  0  0  0
  -37.3621   15.6448  -22.7887 C   0  0  0  0  0  0  0  0  0  0  0  0
  -38.1788   14.6105  -23.2086 C   0  0  0  0  0  0  0  0  0  0  0  0
  -39.8964   14.3306  -22.4310 Br  0  0  0  0  0  0  0  0  0  0  0  0
  -37.7164   13.7819  -24.2102 C   0  0  0  0  0  0  0  0  0  0  0  0
  -36.4758   13.9950  -24.7625 C   0  0  0  0  0  0  0  0  0  0  0  0
  -27.3869   18.4596  -27.8456 C   0  0  0  0  0  0  0  0  0  0  0  0
  -26.3346   18.8766  -28.6782 C   0  0  0  0  0  0  0  0  0  0  0  0
  -25.0295   18.8110  -28.2563 C   0  0  0  0  0  0  0  0  0  0  0  0
  -24.6936   18.3419  -27.0180 C   0  0  0  0  0  0  0  0  0  0  0  0
  -25.7097   17.9301  -26.1871 C   0  0  0  0  0  0  0  0  0  0  0  0
  -25.4148   17.4667  -24.9230 C   0  0  0  0  0  0  0  0  0  0  0  0
  -26.4213   17.0873  -24.1222 N   0  0  0  0  0  0  0  0  0  0  0  0
  -27.7025   17.1441  -24.5094 C   0  0  0  0  0  0  0  0  0  0  0  0
  -28.0098   17.5995  -25.7560 C   0  0  0  0  0  0  0  0  0  0  0  0
  -27.0395   17.9990  -26.6213 C   0  0  0  0  0  0  0  0  0  0  0  0
  3  4  2  0
  4  5  2  0
  4  6  1  0
  6  7  1  0
  7  8  1  0
  8  9  1  0
  9 10  1  0
 10 11  1  0
 11 12  2  0
 12 13  1  0
 13 14  2  0
 14 15  1  0
 15 16  2  0
 16 17  1  0
 16 18  1  0
 18 19  2  0
  4 20  1  0
 20 21  2  0
 21 22  1  0
 22 23  2  0
 23 24  1  0
 24 25  2  0
 25 26  1  0
 26 27  2  0
 27 28  1  0
 28 29  2  0
 19 13  1  0
 29 20  1  0
 29 24  1  0
M  END
$$$$
