
     RDKit          3D

 26 28  0  0  0  0  0  0  0  0999 V2000
  -41.7063    5.1471  -40.5275 N   0  0  0  0  0  0  0  0  0  0  0  0
  -42.8882    5.8763  -40.1792 C   0  0  1  0  0  0  0  0  0  0  0  0
  -42.9080    7.1988  -40.9373 C   0  0  0  0  0  0  0  0  0  0  0  0
  -42.8287    8.5046  -39.7139 S   0  0  0  0  0  0  0  0  0  0  0  0
  -42.6188   10.1565  -40.5020 C   0  0  0  0  0  0  0  0  0  0  0  0
  -41.3767   10.7288  -39.9874 C   0  0  0  0  0  0  0  0  0  0  0  0
  -40.4706   11.4328  -40.7616 C   0  0  0  0  0  0  0  0  0  0  0  0
  -39.2941   11.9632  -40.2791 C   0  0  0  0  0  0  0  0  0  0  0  0
  -38.9762   11.7958  -38.9444 C   0  0  0  0  0  0  0  0  0  0  0  0
  -39.8491   11.1030  -38.1446 C   0  0  0  0  0  0  0  0  0  0  0  0
  -41.0199   10.5804  -38.6466 C   0  0  0  0  0  0  0  0  0  0  0  0
  -43.8069   10.9958  -40.1802 C   0  0  0  0  0  0  0  0  0  0  0  0
  -43.7673   12.3666  -40.4016 C   0  0  0  0  0  0  0  0  0  0  0  0
  -44.8505   13.1602  -40.1192 C   0  0  0  0  0  0  0  0  0  0  0  0
  -46.0044   12.6382  -39.6119 C   0  0  0  0  0  0  0  0  0  0  0  0
  -46.0756   11.2808  -39.3808 C   0  0  0  0  0  0  0  0  0  0  0  0
  -44.9705   10.4762  -39.6698 C   0  0  0  0  0  0  0  0  0  0  0  0
  -42.5544    9.8990  -41.9859 C   0  0  0  0  0  0  0  0  0  0  0  0
  -41.4384    9.3069  -42.5399 C   0  0  0  0  0  0  0  0  0  0  0  0
  -41.2828    9.0359  -43.8773 C   0  0  0  0  0  0  0  0  0  0  0  0
  -42.3477    9.4014  -44.6804 C   0  0  0  0  0  0  0  0  0  0  0  0
  -43.4768    9.9939  -44.1635 C   0  0  0  0  0  0  0  0  0  0  0  0
  -43.5857   10.2453  -42.8183 C   0  0  0  0  0  0  0  0  0  0  0  0
  -44.1337    5.1128  -40.3942 C   0  0  0  0  0  0  0  0  0  0  0  0
  -44.3953    4.5131  -41.4693 O   0  0  0  0  0  0  0  0  0  0  0  0
  -45.0891    5.0261  -39.3890 O   0  0  0  0  0  0  0  0  0  0  0  0
  2  1  1  6
  2  3  1  0
  3  4  1  0
  4  5  1  0
  5  6  1  0
  6  7  2  0
  7  8  1  0
  8  9  2  0
  9 10  1  0
 10 11  2  0
  5 12  1  0
 12 13  2  0
 13 14  1  0
 14 15  2  0
 15 16  1  0
 16 17  2  0
  5 18  1  0
 18 19  2  0
 19 20  1  0
 20 21  2  0
 21 22  1  0
 22 23  2  0
  2 24  1  0
 24 25  2  0
 24 26  1  0
 11  6  1  0
 17 12  1  0
 23 18  1  0
M  END
$$$$
