
     RDKit          3D

 24 26  0  0  0  0  0  0  0  0999 V2000
  -16.2229   41.2421  -18.7952 C   0  0  0  0  0  0  0  0  0  0  0  0
  -17.5923   40.9856  -19.0000 O   0  0  0  0  0  0  0  0  0  0  0  0
  -17.9959   40.4530  -20.2332 C   0  0  0  0  0  0  0  0  0  0  0  0
  -19.0808   39.6071  -20.3146 C   0  0  0  0  0  0  0  0  0  0  0  0
  -19.4951   39.0723  -21.5146 C   0  0  0  0  0  0  0  0  0  0  0  0
  -18.8393   39.3618  -22.6905 C   0  0  0  0  0  0  0  0  0  0  0  0
  -19.2343   38.8317  -23.9460 N   0  0  0  0  0  0  0  0  0  0  0  0
  -19.7527   39.5238  -24.9463 N   0  0  0  0  0  0  0  0  0  0  0  0
  -20.0164   38.7118  -25.9983 C   0  0  0  0  0  0  0  0  0  0  0  0
  -20.5977   39.0773  -27.3117 C   0  0  0  0  0  0  0  0  0  0  0  0
  -21.9281   39.3993  -27.1155 F   0  0  0  0  0  0  0  0  0  0  0  0
  -19.8838   40.1335  -27.8243 F   0  0  0  0  0  0  0  0  0  0  0  0
  -20.4593   37.9873  -28.1704 F   0  0  0  0  0  0  0  0  0  0  0  0
  -19.6424   37.4342  -25.6391 C   0  0  0  0  0  0  0  0  0  0  0  0
  -19.1589   37.5482  -24.3520 C   0  0  0  0  0  0  0  0  0  0  0  0
  -18.6325   36.4856  -23.5036 C   0  0  0  0  0  0  0  0  0  0  0  0
  -17.4340   36.6593  -22.8112 C   0  0  0  0  0  0  0  0  0  0  0  0
  -16.8965   35.6949  -22.0026 C   0  0  0  0  0  0  0  0  0  0  0  0
  -17.5580   34.4950  -21.8571 C   0  0  0  0  0  0  0  0  0  0  0  0
  -16.8494   33.2675  -20.8121 Cl  0  0  0  0  0  0  0  0  0  0  0  0
  -18.7355   34.2964  -22.5241 C   0  0  0  0  0  0  0  0  0  0  0  0
  -19.2715   35.2739  -23.3380 C   0  0  0  0  0  0  0  0  0  0  0  0
  -17.7539   40.2108  -22.5941 C   0  0  0  0  0  0  0  0  0  0  0  0
  -17.3290   40.7526  -21.4000 C   0  0  0  0  0  0  0  0  0  0  0  0
  1  2  1  0
  2  3  1  0
  3  4  2  0
  4  5  1  0
  5  6  2  0
  6  7  1  0
  7  8  1  0
  8  9  2  0
  9 10  1  0
 10 11  1  0
 10 12  1  0
 10 13  1  0
  9 14  1  0
 14 15  2  0
 15 16  1  0
 16 17  2  0
 17 18  1  0
 18 19  2  0
 19 20  1  0
 19 21  1  0
 21 22  2  0
  6 23  1  0
 23 24  2  0
 24  3  1  0
 15  7  1  0
 22 16  1  0
M  END
$$$$
