
     RDKit          3D

 31 34  0  0  0  0  0  0  0  0999 V2000
  -23.0256   15.6605  -36.8400 C   0  0  0  0  0  0  0  0  0  0  0  0
  -21.7098   15.3936  -36.2441 C   0  0  0  0  0  0  0  0  0  0  0  0
  -21.3734   14.1498  -35.7027 C   0  0  0  0  0  0  0  0  0  0  0  0
  -20.1233   13.9489  -35.1579 C   0  0  0  0  0  0  0  0  0  0  0  0
  -19.1632   14.9382  -35.1191 C   0  0  0  0  0  0  0  0  0  0  0  0
  -17.8809   14.6946  -34.5569 N   0  0  0  0  0  0  0  0  0  0  0  0
  -16.8283   15.6396  -34.6039 C   0  0  0  0  0  0  0  0  0  0  0  0
  -15.6702   15.3699  -33.9778 N   0  0  0  0  0  0  0  0  0  0  0  0
  -14.6210   16.1985  -33.9484 C   0  0  0  0  0  0  0  0  0  0  0  0
  -14.7121   17.4039  -34.5903 C   0  0  0  0  0  0  0  0  0  0  0  0
  -15.9015   17.6829  -35.2342 C   0  0  0  0  0  0  0  0  0  0  0  0
  -16.0457   18.9295  -35.8888 N   0  0  0  0  0  0  0  0  0  0  0  0
  -16.2159   20.1379  -35.1203 C   0  0  0  0  0  0  0  0  0  0  0  0
  -16.0236   18.9369  -37.3071 C   0  0  0  0  0  0  0  0  0  0  0  0
  -17.1501   19.2867  -38.0227 C   0  0  0  0  0  0  0  0  0  0  0  0
  -17.1735   19.3125  -39.3932 C   0  0  0  0  0  0  0  0  0  0  0  0
  -16.0277   18.9765  -40.0786 C   0  0  0  0  0  0  0  0  0  0  0  0
  -15.6712   18.8893  -41.4061 C   0  0  0  0  0  0  0  0  0  0  0  0
  -16.5691   19.1726  -42.5620 C   0  0  0  0  0  0  0  0  0  0  0  0
  -14.3975   18.5086  -41.5353 N   0  0  0  0  0  0  0  0  0  0  0  0
  -13.6572   18.3067  -42.7895 C   0  0  0  0  0  0  0  0  0  0  0  0
  -13.9238   18.3468  -40.3049 N   0  0  0  0  0  0  0  0  0  0  0  0
  -14.8912   18.6244  -39.3838 C   0  0  0  0  0  0  0  0  0  0  0  0
  -14.8789   18.6014  -37.9919 C   0  0  0  0  0  0  0  0  0  0  0  0
  -16.9299   16.8239  -35.2409 N   0  0  0  0  0  0  0  0  0  0  0  0
  -19.5109   16.1600  -35.6575 C   0  0  0  0  0  0  0  0  0  0  0  0
  -20.7642   16.4000  -36.2164 C   0  0  0  0  0  0  0  0  0  0  0  0
  -21.1637   17.9597  -36.8853 S   0  0  0  0  0  6  0  0  0  0  0  0
  -22.8664   18.1301  -37.1205 N   0  0  0  0  0  0  0  0  0  0  0  0
  -20.5162   18.0578  -38.2404 O   0  0  0  0  0  0  0  0  0  0  0  0
  -20.6800   19.0950  -36.0657 O   0  0  0  0  0  0  0  0  0  0  0  0
  1  2  1  0
  2  3  2  0
  3  4  1  0
  4  5  2  0
  5  6  1  0
  6  7  1  0
  7  8  2  0
  8  9  1  0
  9 10  2  0
 10 11  1  0
 11 12  1  0
 12 13  1  0
 12 14  1  0
 14 15  1  0
 15 16  2  0
 16 17  1  0
 17 18  2  0
 18 19  1  0
 18 20  1  0
 20 21  1  0
 20 22  1  0
 22 23  2  0
 23 24  1  0
 11 25  2  0
  5 26  1  0
 26 27  2  0
 27 28  1  0
 28 29  1  0
 28 30  2  0
 28 31  2  0
 27  2  1  0
 25  7  1  0
 24 14  2  0
 23 17  1  0
M  END
$$$$
