
     RDKit          3D

 25 25  0  0  0  0  0  0  0  0999 V2000
  -27.7350   38.0432  -40.7130 C   0  0  0  0  0  0  0  0  0  0  0  0
  -28.7797   37.2343  -40.2026 O   0  0  0  0  0  0  0  0  0  0  0  0
  -28.5352   36.1608  -39.3536 C   0  0  0  0  0  0  0  0  0  0  0  0
  -27.2966   35.7926  -38.9383 C   0  0  0  0  0  0  0  0  0  0  0  0
  -27.1256   34.7099  -38.0903 C   0  0  0  0  0  0  0  0  0  0  0  0
  -28.1824   33.9622  -37.6301 C   0  0  0  0  0  0  0  0  0  0  0  0
  -27.9640   32.8548  -36.7283 C   0  0  0  0  0  0  0  0  0  0  0  0
  -27.2989   32.9870  -35.6121 C   0  0  0  0  0  0  0  0  0  0  0  0
  -26.6888   34.2441  -35.0906 C   0  0  0  0  0  0  0  0  0  0  0  0
  -27.3573   34.4693  -33.7369 C   0  0  0  0  0  0  0  0  0  0  0  0
  -27.5693   33.2635  -32.9400 C   0  0  0  0  0  0  0  0  0  0  0  0
  -27.2552   31.9792  -33.4525 N   0  0  0  0  0  0  0  0  0  0  0  0
  -27.1129   31.7972  -34.7501 C   0  0  0  0  0  0  0  0  0  0  0  0
  -26.8301   30.5201  -35.3446 C   0  0  0  0  0  0  0  0  0  0  0  0
  -26.8418   29.4149  -34.4692 C   0  0  0  0  0  0  0  0  0  0  0  0
  -26.5477   28.1508  -34.8650 C   0  0  0  0  0  0  0  0  0  0  0  0
  -26.2186   27.9265  -36.1932 C   0  0  0  0  0  0  0  0  0  0  0  0
  -26.2035   28.9678  -37.0317 N   0  0  0  0  0  0  0  0  0  0  0  0
  -26.4991   30.2419  -36.6321 C   0  0  0  0  0  0  0  0  0  0  0  0
  -29.4368   34.3442  -38.0578 C   0  0  0  0  0  0  0  0  0  0  0  0
  -30.5343   33.5971  -37.6038 O   0  0  0  0  0  0  0  0  0  0  0  0
  -31.8611   33.9490  -38.0163 C   0  0  0  0  0  0  0  0  0  0  0  0
  -29.6254   35.4315  -38.9119 C   0  0  0  0  0  0  0  0  0  0  0  0
  -27.8823   33.9450  -37.1297 Cl  0  0  0  0  0  0  0  0  0  0  0  0
  -27.8824   33.9480  -37.1323 Cl  0  0  0  0  0  0  0  0  0  0  0  0
  1  2  1  0
  2  3  1  0
  3  4  2  0
  4  5  1  0
  5  6  2  0
  6  7  1  0
  7  8  2  0
  8  9  1  0
  9 10  1  0
 10 11  1  0
 11 12  1  0
 12 13  2  0
 13 14  1  0
 14 15  2  0
 15 16  1  0
 16 17  2  0
 17 18  1  0
 18 19  2  0
  6 20  1  0
 20 21  1  0
 21 22  1  0
 20 23  2  0
 23  3  1  0
 13  8  1  0
 19 14  1  0
M  END
$$$$
