
     RDKit          3D

 42 47  0  0  0  0  0  0  0  0999 V2000
  -23.2015   27.7209  -33.1702 C   0  0  0  0  0  0  0  0  0  0  0  0
  -24.5517   27.8099  -32.4737 C   0  0  0  0  0  0  0  0  0  0  0  0
  -25.3321   28.8220  -33.1647 N   0  0  0  0  0  0  0  0  0  0  0  0
  -25.4512   30.1341  -32.9302 C   0  0  0  0  0  0  0  0  0  0  0  0
  -24.7649   30.8549  -31.8508 C   0  0  0  0  0  0  0  0  0  0  0  0
  -23.6653   30.4817  -31.1807 N   0  0  0  0  0  0  0  0  0  0  0  0
  -23.3927   31.4232  -30.2986 O   0  0  0  0  0  0  0  0  0  0  0  0
  -24.2715   32.3745  -30.3820 N   0  0  0  0  0  0  0  0  0  0  0  0
  -25.1617   32.0642  -31.3487 C   0  0  0  0  0  0  0  0  0  0  0  0
  -26.2824   32.8157  -31.7740 N   0  0  0  0  0  0  0  0  0  0  0  0
  -26.2932   30.6377  -33.8476 N   0  0  0  0  0  0  0  0  0  0  0  0
  -26.7128   29.6473  -34.6692 C   0  0  0  0  0  0  0  0  0  0  0  0
  -27.5521   29.5769  -35.7521 C   0  0  0  0  0  0  0  0  0  0  0  0
  -27.7609   28.4039  -36.3611 N   0  0  0  0  0  0  0  0  0  0  0  0
  -27.2143   27.2329  -36.0135 C   0  0  0  0  0  0  0  0  0  0  0  0
  -27.3937   26.0194  -36.5974 O   0  0  0  0  0  0  0  0  0  0  0  0
  -26.6698   24.8719  -36.4186 C   0  0  0  0  0  0  0  0  0  0  0  0
  -26.6674   24.1247  -35.2835 C   0  0  0  0  0  0  0  0  0  0  0  0
  -25.9131   22.9751  -35.1679 C   0  0  0  0  0  0  0  0  0  0  0  0
  -25.1503   22.5881  -36.2342 C   0  0  0  0  0  0  0  0  0  0  0  0
  -25.1197   23.3276  -37.4292 C   0  0  0  0  0  0  0  0  0  0  0  0
  -24.2857   22.8082  -38.4513 N   0  0  0  0  0  0  0  0  0  0  0  0
  -22.8811   22.6979  -38.3993 C   0  0  0  0  0  0  0  0  0  0  0  0
  -22.2878   22.9379  -37.3079 O   0  0  0  0  0  0  0  0  0  0  0  0
  -22.0584   22.3098  -39.5763 C   0  0  0  0  0  0  0  0  0  0  0  0
  -22.6083   22.0185  -40.7919 C   0  0  0  0  0  0  0  0  0  0  0  0
  -21.8110   21.6550  -41.8864 C   0  0  0  0  0  0  0  0  0  0  0  0
  -20.4440   21.5703  -41.8010 C   0  0  0  0  0  0  0  0  0  0  0  0
  -19.5881   21.2239  -42.7985 O   0  0  0  0  0  0  0  0  0  0  0  0
  -19.2327   21.9769  -43.8929 C   0  0  0  0  0  0  0  0  0  0  0  0
  -19.6319   21.4709  -45.2341 C   0  0  0  0  0  0  0  0  0  0  0  0
  -18.4840   21.1129  -46.0580 N   0  0  0  0  0  0  0  0  0  0  0  0
  -18.3567   19.6826  -46.1209 C   0  0  0  0  0  0  0  0  0  0  0  0
  -17.1161   19.2927  -46.8764 C   0  0  0  0  0  0  0  0  0  0  0  0
  -16.9390   20.0742  -48.0063 O   0  0  0  0  0  0  0  0  0  0  0  0
  -18.1058   20.7138  -48.3860 C   0  0  0  0  0  0  0  0  0  0  0  0
  -18.5111   21.7426  -47.3388 C   0  0  0  0  0  0  0  0  0  0  0  0
  -19.9126   21.8795  -40.5279 C   0  0  0  0  0  0  0  0  0  0  0  0
  -20.6925   22.2337  -39.4641 C   0  0  0  0  0  0  0  0  0  0  0  0
  -25.8740   24.4438  -37.4939 C   0  0  0  0  0  0  0  0  0  0  0  0
  -26.3529   27.3183  -34.8983 C   0  0  0  0  0  0  0  0  0  0  0  0
  -26.1080   28.5005  -34.2408 C   0  0  0  0  0  0  0  0  0  0  0  0
  1  2  1  0
  2  3  1  0
  3  4  1  0
  4  5  1  0
  5  6  2  0
  6  7  1  0
  7  8  1  0
  8  9  2  0
  9 10  1  0
  4 11  2  0
 11 12  1  0
 12 13  2  0
 13 14  1  0
 14 15  2  0
 15 16  1  0
 16 17  1  0
 17 18  2  0
 18 19  1  0
 19 20  2  0
 20 21  1  0
 21 22  1  0
 22 23  1  0
 23 24  2  0
 23 25  1  0
 25 26  2  0
 26 27  1  0
 27 28  2  0
 28 29  1  0
 29 30  1  0
 30 31  1  0
 31 32  1  0
 32 33  1  0
 33 34  1  0
 34 35  1  0
 35 36  1  0
 36 37  1  0
 28 38  1  0
 38 39  2  0
 21 40  2  0
 15 41  1  0
 41 42  2  0
 42  3  1  0
  9  5  1  0
 42 12  1  0
 40 17  1  0
 39 25  1  0
 37 32  1  0
M  END
$$$$
