
     RDKit          3D

 23 24  0  0  0  0  0  0  0  0999 V2000
  -16.7877   17.3399  -36.5425 O   0  0  0  0  0  0  0  0  0  0  0  0
  -17.9994   17.3545  -36.8667 C   0  0  0  0  0  0  0  0  0  0  0  0
  -18.3552   16.7846  -38.0785 O   0  0  0  0  0  0  0  0  0  0  0  0
  -18.9888   17.9727  -35.9518 C   0  0  0  0  0  0  0  0  0  0  0  0
  -20.3289   17.2714  -35.9980 C   0  0  0  0  0  0  0  0  0  0  0  0
  -21.2036   17.9418  -36.9678 C   0  0  0  0  0  0  0  0  0  0  0  0
  -21.5227   19.2715  -36.7906 C   0  0  0  0  0  0  0  0  0  0  0  0
  -22.3398   19.9401  -37.6739 C   0  0  0  0  0  0  0  0  0  0  0  0
  -22.8546   19.2627  -38.7674 C   0  0  0  0  0  0  0  0  0  0  0  0
  -22.5579   17.9367  -38.9760 C   0  0  0  0  0  0  0  0  0  0  0  0
  -21.7265   17.2873  -38.0620 C   0  0  0  0  0  0  0  0  0  0  0  0
  -18.3949   17.8937  -34.5490 C   0  0  0  0  0  0  0  0  0  0  0  0
  -16.9800   17.6605  -34.5746 N   0  0  0  0  0  0  0  0  0  0  0  0
  -16.2017   18.3662  -35.4148 O   0  0  0  0  0  0  0  0  0  0  0  0
  -16.3898   16.7037  -33.7338 C   0  0  0  0  0  0  0  0  0  0  0  0
  -17.0884   15.8395  -33.1539 O   0  0  0  0  0  0  0  0  0  0  0  0
  -14.9416   16.6795  -33.5017 C   0  0  0  0  0  0  0  0  0  0  0  0
  -14.5510   15.6750  -32.4726 C   0  0  0  0  0  0  0  0  0  0  0  0
  -14.8136   15.8338  -31.1283 C   0  0  0  0  0  0  0  0  0  0  0  0
  -14.4296   14.8714  -30.2191 C   0  0  0  0  0  0  0  0  0  0  0  0
  -13.7730   13.7298  -30.6471 C   0  0  0  0  0  0  0  0  0  0  0  0
  -13.4956   13.5419  -31.9870 C   0  0  0  0  0  0  0  0  0  0  0  0
  -13.8965   14.5287  -32.8667 C   0  0  0  0  0  0  0  0  0  0  0  0
  1  2  2  0
  2  3  1  0
  2  4  1  0
  4  5  1  0
  5  6  1  0
  6  7  2  0
  7  8  1  0
  8  9  2  0
  9 10  1  0
 10 11  2  0
  4 12  1  0
 12 13  1  0
 13 14  1  0
 13 15  1  0
 15 16  2  0
 15 17  1  0
 17 18  1  0
 18 19  2  0
 19 20  1  0
 20 21  2  0
 21 22  1  0
 22 23  2  0
 11  6  1  0
 23 18  1  0
M  END
$$$$
