
     RDKit          3D

 26 29  0  0  0  0  0  0  0  0999 V2000
    1.2887    5.6108  -40.5144 O   0  0  0  0  0  0  0  0  0  0  0  0
    0.8985    6.3955  -39.5929 C   0  0  0  0  0  0  0  0  0  0  0  0
   -0.4645    6.2067  -39.1060 C   0  0  0  0  0  0  0  0  0  0  0  0
   -0.7858    5.3436  -38.0796 C   0  0  0  0  0  0  0  0  0  0  0  0
   -2.0860    5.1865  -37.6452 C   0  0  0  0  0  0  0  0  0  0  0  0
   -3.1169    5.8906  -38.2243 C   0  0  0  0  0  0  0  0  0  0  0  0
   -4.7905    5.7530  -37.7376 Cl  0  0  0  0  0  0  0  0  0  0  0  0
   -2.8201    6.7584  -39.2503 C   0  0  0  0  0  0  0  0  0  0  0  0
   -1.5125    6.9234  -39.6950 C   0  0  0  0  0  0  0  0  0  0  0  0
    1.7654    7.4122  -39.0655 N   0  0  0  0  0  0  0  0  0  0  0  0
    1.3106    8.4338  -38.1783 C   0  0  0  0  0  0  0  0  0  0  0  0
    2.2186    8.7496  -37.0320 C   0  0  0  0  0  0  0  0  0  0  0  0
    3.5929    8.4376  -37.2768 N   0  0  0  0  0  0  0  0  0  0  0  0
    4.6689    9.1961  -36.7495 C   0  0  0  0  0  0  0  0  0  0  0  0
    5.9363    9.1051  -37.3443 C   0  0  0  0  0  0  0  0  0  0  0  0
    6.9574    9.8416  -36.7989 C   0  0  0  0  0  0  0  0  0  0  0  0
    6.7310   10.6200  -35.7285 N   0  0  0  0  0  0  0  0  0  0  0  0
    5.5279   10.7294  -35.1349 C   0  0  0  0  0  0  0  0  0  0  0  0
    5.3291   11.5502  -34.0338 C   0  0  0  0  0  0  0  0  0  0  0  0
    4.1070   11.6872  -33.4109 C   0  0  0  0  0  0  0  0  0  0  0  0
    3.8768   12.7351  -32.0174 Cl  0  0  0  0  0  0  0  0  0  0  0  0
    3.0544   10.9662  -33.9254 C   0  0  0  0  0  0  0  0  0  0  0  0
    3.2385   10.1354  -35.0332 C   0  0  0  0  0  0  0  0  0  0  0  0
    4.4630   10.0036  -35.6499 C   0  0  0  0  0  0  0  0  0  0  0  0
    3.9302    7.3015  -38.1126 C   0  0  0  0  0  0  0  0  0  0  0  0
    3.1608    7.3997  -39.4455 C   0  0  0  0  0  0  0  0  0  0  0  0
  1  2  2  0
  2  3  1  0
  3  4  2  0
  4  5  1  0
  5  6  2  0
  6  7  1  0
  6  8  1  0
  8  9  2  0
  2 10  1  0
 10 11  1  0
 11 12  1  0
 12 13  1  0
 13 14  1  0
 14 15  2  0
 15 16  1  0
 16 17  2  0
 17 18  1  0
 18 19  2  0
 19 20  1  0
 20 21  1  0
 20 22  2  0
 22 23  1  0
 23 24  2  0
 13 25  1  0
 25 26  1  0
  9  3  1  0
 26 10  1  0
 24 14  1  0
 24 18  1  0
M  END
$$$$
