
     RDKit          3D

 30 33  0  0  0  0  0  0  0  0999 V2000
  -17.6033   34.7532  -22.0125 C   0  0  0  0  0  0  0  0  0  0  0  0
  -18.8086   34.7592  -22.9500 C   0  0  0  0  0  0  0  0  0  0  0  0
  -18.4166   34.3730  -24.3383 C   0  0  0  0  0  0  0  0  0  0  0  0
  -19.6501   33.7287  -22.4667 O   0  0  0  0  0  0  0  0  0  0  0  0
  -19.5785   36.0242  -22.8299 C   0  0  1  0  0  0  0  0  0  0  0  0
  -18.7617   37.2271  -22.4294 C   0  0  0  0  0  0  0  0  0  0  0  0
  -18.4685   38.1204  -23.6162 C   0  0  0  0  0  0  0  0  0  0  0  0
  -19.7539   38.8030  -24.1242 C   0  0  2  0  0  0  0  0  0  0  0  0
  -19.9620   39.9767  -23.3514 N   0  0  0  0  0  0  0  0  0  0  0  0
  -19.5287   41.2804  -23.7120 C   0  0  0  0  0  0  0  0  0  0  0  0
  -19.9564   41.8302  -24.8996 C   0  0  0  0  0  0  0  0  0  0  0  0
  -19.5570   43.1048  -25.2608 C   0  0  0  0  0  0  0  0  0  0  0  0
  -18.7209   43.7628  -24.3654 C   0  0  0  0  0  0  0  0  0  0  0  0
  -18.1603   44.9741  -24.3981 N   0  0  0  0  0  0  0  0  0  0  0  0
  -17.4247   45.1651  -23.2916 C   0  0  0  0  0  0  0  0  0  0  0  0
  -17.5143   44.0337  -22.5156 C   0  0  0  0  0  0  0  0  0  0  0  0
  -16.8841   43.7838  -21.2279 C   0  0  0  0  0  0  0  0  0  0  0  0
  -16.2717   44.8417  -20.5941 C   0  0  0  0  0  0  0  0  0  0  0  0
  -15.6462   44.6713  -19.3528 C   0  0  0  0  0  0  0  0  0  0  0  0
  -15.6433   43.4226  -18.7546 C   0  0  0  0  0  0  0  0  0  0  0  0
  -16.2444   42.3700  -19.3701 C   0  0  0  0  0  0  0  0  0  0  0  0
  -16.2199   41.0410  -18.6937 C   0  0  0  0  0  0  0  0  0  0  0  0
  -15.8629   41.1862  -17.3483 F   0  0  0  0  0  0  0  0  0  0  0  0
  -15.3948   40.1627  -19.3293 F   0  0  0  0  0  0  0  0  0  0  0  0
  -17.5350   40.5694  -18.6794 F   0  0  0  0  0  0  0  0  0  0  0  0
  -16.8535   42.5633  -20.5917 C   0  0  0  0  0  0  0  0  0  0  0  0
  -18.3267   43.1889  -23.2166 N   0  0  0  0  0  0  0  0  0  0  0  0
  -18.7124   41.9713  -22.8782 N   0  0  0  0  0  0  0  0  0  0  0  0
  -20.8335   37.7612  -23.9440 C   0  0  0  0  0  0  0  0  0  0  0  0
  -20.1981   36.3941  -24.1667 C   0  0  0  0  0  0  0  0  0  0  0  0
  1  2  1  0
  2  3  1  0
  2  4  1  0
  5  2  1  6
  5  6  1  0
  6  7  1  0
  7  8  1  0
  8  9  1  1
  9 10  1  0
 10 11  1  0
 11 12  2  0
 12 13  1  0
 13 14  2  0
 14 15  1  0
 15 16  2  0
 16 17  1  0
 17 18  2  0
 18 19  1  0
 19 20  2  0
 20 21  1  0
 21 22  1  0
 22 23  1  0
 22 24  1  0
 22 25  1  0
 21 26  2  0
 16 27  1  0
 27 28  1  0
  8 29  1  0
 29 30  1  0
 30  5  1  0
 28 10  2  0
 27 13  1  0
 26 17  1  0
M  END
$$$$
