
     RDKit          3D

 33 36  0  0  0  0  0  0  0  0999 V2000
  -32.3503   16.2283  -27.0112 C   0  0  0  0  0  0  0  0  0  0  0  0
  -31.1360   15.5332  -27.5999 C   0  0  0  0  0  0  0  0  0  0  0  0
  -29.9435   16.3763  -27.4100 N   0  0  0  0  0  0  0  0  0  0  0  0
  -29.2504   16.1516  -26.2912 C   0  0  0  0  0  0  0  0  0  0  0  0
  -28.1142   16.9552  -26.1228 C   0  0  0  0  0  0  0  0  0  0  0  0
  -27.2259   16.8776  -24.9968 C   0  0  0  0  0  0  0  0  0  0  0  0
  -27.0917   18.0012  -24.2054 C   0  0  0  0  0  0  0  0  0  0  0  0
  -26.2574   17.9879  -23.1090 C   0  0  0  0  0  0  0  0  0  0  0  0
  -25.5408   16.8646  -22.7760 C   0  0  0  0  0  0  0  0  0  0  0  0
  -25.6675   15.7456  -23.5557 C   0  0  0  0  0  0  0  0  0  0  0  0
  -24.9009   14.5309  -23.2062 C   0  0  0  0  0  0  0  0  0  0  0  0
  -25.7779   13.5223  -22.8477 F   0  0  0  0  0  0  0  0  0  0  0  0
  -24.0741   14.7383  -22.1113 F   0  0  0  0  0  0  0  0  0  0  0  0
  -24.1887   14.0427  -24.2954 F   0  0  0  0  0  0  0  0  0  0  0  0
  -26.5028   15.7599  -24.6522 C   0  0  0  0  0  0  0  0  0  0  0  0
  -27.8136   17.8954  -27.1127 C   0  0  0  0  0  0  0  0  0  0  0  0
  -26.4675   19.0967  -27.2748 S   0  0  0  0  0  0  0  0  0  0  0  0
  -26.9895   19.7487  -28.8068 C   0  0  0  0  0  0  0  0  0  0  0  0
  -26.3314   20.8222  -29.5899 C   0  0  0  0  0  0  0  0  0  0  0  0
  -25.2428   21.3674  -29.1694 N   0  0  0  0  0  0  0  0  0  0  0  0
  -26.8666   21.2713  -30.8135 N   0  0  0  0  0  0  0  0  0  0  0  0
  -27.5811   22.5047  -31.0146 C   0  0  0  0  0  0  0  0  0  0  0  0
  -29.0703   22.3522  -31.1371 C   0  0  0  0  0  0  0  0  0  0  0  0
  -29.6540   23.7664  -30.9798 C   0  0  0  0  0  0  0  0  0  0  0  0
  -29.1972   24.6187  -32.4985 S   0  0  0  0  0  6  0  0  0  0  0  0
  -28.5008   25.9215  -32.1910 O   0  0  0  0  0  0  0  0  0  0  0  0
  -30.3570   24.7891  -33.4029 O   0  0  0  0  0  0  0  0  0  0  0  0
  -27.9578   23.5716  -33.2684 C   0  0  0  0  0  0  0  0  0  0  0  0
  -26.9664   23.2231  -32.1823 C   0  0  0  0  0  0  0  0  0  0  0  0
  -28.1134   19.0460  -29.0985 C   0  0  0  0  0  0  0  0  0  0  0  0
  -28.5281   18.1108  -28.2426 C   0  0  0  0  0  0  0  0  0  0  0  0
  -29.6631   17.2717  -28.3590 C   0  0  0  0  0  0  0  0  0  0  0  0
  -30.4243   17.3591  -29.3606 O   0  0  0  0  0  0  0  0  0  0  0  0
  1  2  1  0
  2  3  1  0
  3  4  1  0
  4  5  2  0
  5  6  1  0
  6  7  2  0
  7  8  1  0
  8  9  2  0
  9 10  1  0
 10 11  1  0
 11 12  1  0
 11 13  1  0
 11 14  1  0
 10 15  2  0
  5 16  1  0
 16 17  1  0
 17 18  1  0
 18 19  1  0
 19 20  2  0
 19 21  1  0
 21 22  1  0
 22 23  1  0
 23 24  1  0
 24 25  1  0
 25 26  2  0
 25 27  2  0
 25 28  1  0
 28 29  1  0
 18 30  2  0
 30 31  1  0
 31 32  1  0
 32 33  2  0
 32  3  1  0
 15  6  1  0
 31 16  2  0
 29 22  1  0
M  END
$$$$
