
     RDKit          3D

 28 30  0  0  0  0  0  0  0  0999 V2000
  -21.9355   42.4859  -26.5633 C   0  0  0  0  0  0  0  0  0  0  0  0
  -20.7043   41.7062  -26.9332 C   0  0  0  0  0  0  0  0  0  0  0  0
  -20.6237   40.3835  -26.2575 C   0  0  0  0  0  0  0  0  0  0  0  0
  -21.3483   39.2963  -26.7317 C   0  0  0  0  0  0  0  0  0  0  0  0
  -22.1956   39.4489  -27.9356 C   0  0  0  0  0  0  0  0  0  0  0  0
  -21.2461   38.1012  -26.0626 N   0  0  0  0  0  0  0  0  0  0  0  0
  -20.4888   37.9159  -24.9797 C   0  0  0  0  0  0  0  0  0  0  0  0
  -20.3994   36.3679  -24.0979 S   0  0  0  0  0  0  0  0  0  0  0  0
  -18.9383   36.2381  -23.0380 C   0  0  0  0  0  0  0  0  0  0  0  0
  -18.8223   37.4103  -22.1101 C   0  0  0  0  0  0  0  0  0  0  0  0
  -19.4935   37.4359  -21.0650 O   0  0  0  0  0  0  0  0  0  0  0  0
  -17.9652   38.4848  -22.4179 N   0  0  0  0  0  0  0  0  0  0  0  0
  -17.7275   39.5535  -21.4927 C   0  0  0  0  0  0  0  0  0  0  0  0
  -17.1182   40.5836  -21.4510 N   0  0  0  0  0  0  0  0  0  0  0  0
  -17.0248   41.4456  -20.4782 C   0  0  0  0  0  0  0  0  0  0  0  0
  -16.2524   42.7235  -20.5815 C   0  0  0  0  0  0  0  0  0  0  0  0
  -15.6152   43.2597  -19.4976 C   0  0  0  0  0  0  0  0  0  0  0  0
  -14.9123   44.4666  -19.5726 C   0  0  0  0  0  0  0  0  0  0  0  0
  -14.8556   45.1407  -20.7677 C   0  0  0  0  0  0  0  0  0  0  0  0
  -14.1636   46.3377  -20.8489 O   0  0  0  0  0  0  0  0  0  0  0  0
  -13.3540   46.8015  -19.7700 C   0  0  0  0  0  0  0  0  0  0  0  0
  -15.4892   44.6159  -21.8635 C   0  0  0  0  0  0  0  0  0  0  0  0
  -16.1871   43.4146  -21.7857 C   0  0  0  0  0  0  0  0  0  0  0  0
  -17.7238   41.1188  -19.3463 C   0  0  0  0  0  0  0  0  0  0  0  0
  -18.4855   39.5332  -19.8093 S   0  0  0  0  0  0  0  0  0  0  0  0
  -19.7791   38.9935  -24.5265 N   0  0  0  0  0  0  0  0  0  0  0  0
  -19.8453   40.1806  -25.1412 C   0  0  0  0  0  0  0  0  0  0  0  0
  -19.0913   41.2361  -24.6145 O   0  0  0  0  0  0  0  0  0  0  0  0
  1  2  1  0
  2  3  1  0
  3  4  2  0
  4  5  1  0
  4  6  1  0
  6  7  2  0
  7  8  1  0
  8  9  1  0
  9 10  1  0
 10 11  2  0
 10 12  1  0
 12 13  1  0
 13 14  2  0
 14 15  1  0
 15 16  1  0
 16 17  2  0
 17 18  1  0
 18 19  2  0
 19 20  1  0
 20 21  1  0
 19 22  1  0
 22 23  2  0
 15 24  2  0
 24 25  1  0
  7 26  1  0
 26 27  2  0
 27 28  1  0
 27  3  1  0
 25 13  1  0
 23 16  1  0
M  END
$$$$
