
     RDKit          3D

 20 21  0  0  0  0  0  0  0  0999 V2000
  -27.6395   19.4014  -29.9607 O   0  0  0  0  0  0  0  0  0  0  0  0
  -28.2384   20.4741  -29.7940 C   0  0  0  0  0  0  0  0  0  0  0  0
  -28.3768   21.2677  -30.9371 O   0  0  0  0  0  0  0  0  0  0  0  0
  -28.7796   20.9293  -28.5210 C   0  0  0  0  0  0  0  0  0  0  0  0
  -29.3708   22.1836  -28.4994 C   0  0  0  0  0  0  0  0  0  0  0  0
  -29.8757   22.6265  -27.2939 C   0  0  0  0  0  0  0  0  0  0  0  0
  -29.8106   21.8758  -26.1331 C   0  0  0  0  0  0  0  0  0  0  0  0
  -29.2229   20.6635  -26.2178 N   0  0  0  0  0  0  0  0  0  0  0  0
  -28.7062   20.1616  -27.3707 C   0  0  0  0  0  0  0  0  0  0  0  0
  -28.1421   18.8805  -27.4216 N   0  0  0  0  0  0  0  0  0  0  0  0
  -28.1014   17.9287  -26.3760 C   0  0  0  0  0  0  0  0  0  0  0  0
  -28.4007   16.6067  -26.5761 C   0  0  0  0  0  0  0  0  0  0  0  0
  -28.3622   15.6980  -25.5165 C   0  0  0  0  0  0  0  0  0  0  0  0
  -28.0152   16.1238  -24.2369 C   0  0  0  0  0  0  0  0  0  0  0  0
  -27.7082   17.4626  -24.0162 C   0  0  0  0  0  0  0  0  0  0  0  0
  -27.3482   17.9598  -22.6696 C   0  0  0  0  0  0  0  0  0  0  0  0
  -27.4006   19.3599  -22.6280 F   0  0  0  0  0  0  0  0  0  0  0  0
  -26.0469   17.5745  -22.4010 F   0  0  0  0  0  0  0  0  0  0  0  0
  -28.2034   17.3966  -21.7374 F   0  0  0  0  0  0  0  0  0  0  0  0
  -27.7632   18.3311  -25.1128 C   0  0  0  0  0  0  0  0  0  0  0  0
  1  2  2  0
  2  3  1  0
  2  4  1  0
  4  5  2  0
  5  6  1  0
  6  7  2  0
  7  8  1  0
  8  9  2  0
  9 10  1  0
 10 11  1  0
 11 12  2  0
 12 13  1  0
 13 14  2  0
 14 15  1  0
 15 16  1  0
 16 17  1  0
 16 18  1  0
 16 19  1  0
 15 20  2  0
  9  4  1  0
 20 11  1  0
M  END
$$$$
