
     RDKit          3D

 23 26  0  0  0  0  0  0  0  0999 V2000
  -12.4314   13.7113  -32.3036 C   0  0  0  0  0  0  0  0  0  0  0  0
  -13.1924   14.7366  -31.5771 C   0  0  0  0  0  0  0  0  0  0  0  0
  -12.6870   15.8232  -31.3679 O   0  0  0  0  0  0  0  0  0  0  0  0
  -14.5553   14.4436  -31.1094 C   0  0  1  0  0  0  0  0  0  0  0  0
  -14.8518   14.9516  -29.7129 C   0  0  0  0  0  0  0  0  0  0  0  0
  -16.3657   15.1731  -29.6587 C   0  0  0  0  0  0  0  0  0  0  0  0
  -16.7941   14.7634  -31.0313 C   0  0  1  0  0  0  0  0  0  0  0  0
  -18.1266   15.1666  -31.4738 C   0  0  2  0  0  0  0  0  0  0  0  0
  -18.9430   13.9182  -31.7101 C   0  0  0  0  0  0  0  0  0  0  0  0
  -20.0371   13.9681  -32.4520 C   0  0  0  0  0  0  0  0  0  0  0  0
  -20.4256   15.2665  -33.0311 C   0  0  0  0  0  0  0  0  0  0  0  0
  -21.6863   15.5781  -33.2466 C   0  0  0  0  0  0  0  0  0  0  0  0
  -22.0551   16.8607  -33.8172 C   0  0  0  0  0  0  0  0  0  0  0  0
  -23.0894   16.9915  -34.5063 O   0  0  0  0  0  0  0  0  0  0  0  0
  -21.1708   18.0151  -33.5606 C   0  0  0  0  0  0  0  0  0  0  0  0
  -19.8428   17.6735  -33.0052 C   0  0  0  0  0  0  0  0  0  0  0  0
  -19.3920   16.2507  -33.3803 C   0  0  2  0  0  0  0  0  0  0  0  0
  -19.2347   16.2921  -34.8966 C   0  0  0  0  0  0  0  0  0  0  0  0
  -18.0347   15.9590  -32.7764 C   0  0  2  0  0  0  0  0  0  0  0  0
  -17.1471   15.2583  -33.7739 C   0  0  0  0  0  0  0  0  0  0  0  0
  -15.8453   14.7848  -33.2405 C   0  0  0  0  0  0  0  0  0  0  0  0
  -15.6245   15.2631  -31.8640 C   0  0  2  0  0  0  0  0  0  0  0  0
  -15.2871   16.6852  -31.6724 C   0  0  0  0  0  0  0  0  0  0  0  0
  1  2  1  0
  2  3  2  0
  4  2  1  6
  4  5  1  0
  5  6  1  0
  7  6  1  1
  7  8  1  0
  8  9  1  6
  9 10  2  0
 10 11  1  0
 11 12  2  0
 12 13  1  0
 13 14  2  0
 13 15  1  0
 15 16  1  0
 16 17  1  0
 17 18  1  6
 17 19  1  0
 19 20  1  6
 20 21  1  0
 21 22  1  0
 22 23  1  6
 22  4  1  0
 22  7  1  0
 19  8  1  0
 17 11  1  0
M  END
$$$$
