
     RDKit          3D

 38 39  0  0  0  0  0  0  0  0999 V2000
  -34.2176   17.1736  -24.7307 C   0  0  0  0  0  0  0  0  0  0  0  0
  -34.0472   15.8451  -24.4886 O   0  0  0  0  0  0  0  0  0  0  0  0
  -33.2726   15.1264  -25.3507 C   0  0  0  0  0  0  0  0  0  0  0  0
  -31.8769   15.6292  -25.3464 C   0  0  0  0  0  0  0  0  0  0  0  0
  -31.5671   16.5463  -24.5960 O   0  0  0  0  0  0  0  0  0  0  0  0
  -30.8966   15.1312  -26.1354 O   0  0  0  0  0  0  0  0  0  0  0  0
  -29.5450   15.4888  -26.2757 C   0  0  2  0  0  0  0  0  0  0  0  0
  -29.2231   16.8123  -26.7805 C   0  0  0  0  0  0  0  0  0  0  0  0
  -29.5972   18.0809  -26.2087 C   0  0  0  0  0  0  0  0  0  0  0  0
  -29.0107   19.1576  -27.0225 N   0  0  0  0  0  0  0  0  0  0  0  0
  -27.6239   19.2863  -26.9878 C   0  0  0  0  0  0  0  0  0  0  0  0
  -29.8407   20.2770  -27.2034 C   0  0  0  0  0  0  0  0  0  0  0  0
  -29.2313   21.3577  -28.0291 C   0  0  0  0  0  0  0  0  0  0  0  0
  -28.8723   20.8605  -29.4179 C   0  0  0  0  0  0  0  0  0  0  0  0
  -28.2662   21.9514  -30.2049 C   0  0  0  0  0  0  0  0  0  0  0  0
  -28.9483   22.8082  -30.9738 N   0  0  0  0  0  0  0  0  0  0  0  0
  -28.0860   23.6842  -31.5573 C   0  0  0  0  0  0  0  0  0  0  0  0
  -28.2339   24.7417  -32.4159 C   0  0  0  0  0  0  0  0  0  0  0  0
  -27.1709   25.4921  -32.8733 C   0  0  0  0  0  0  0  0  0  0  0  0
  -25.9044   25.1564  -32.4422 C   0  0  0  0  0  0  0  0  0  0  0  0
  -25.7504   24.0832  -31.5705 C   0  0  0  0  0  0  0  0  0  0  0  0
  -26.8257   23.3460  -31.1252 C   0  0  0  0  0  0  0  0  0  0  0  0
  -26.9748   22.2950  -30.3100 N   0  0  0  0  0  0  0  0  0  0  0  0
  -29.2519   14.6122  -27.5568 C   0  0  0  0  0  0  0  0  0  0  0  0
  -29.4297   13.1690  -27.3162 C   0  0  0  0  0  0  0  0  0  0  0  0
  -29.8376   12.8123  -25.9209 C   0  0  0  0  0  0  0  0  0  0  0  0
  -30.5806   11.6943  -25.7153 C   0  0  0  0  0  0  0  0  0  0  0  0
  -30.9620   11.3892  -24.4143 C   0  0  0  0  0  0  0  0  0  0  0  0
  -31.7015   10.2730  -24.2260 F   0  0  0  0  0  0  0  0  0  0  0  0
  -30.6021   12.1917  -23.3549 C   0  0  0  0  0  0  0  0  0  0  0  0
  -29.8430   13.3286  -23.5881 C   0  0  0  0  0  0  0  0  0  0  0  0
  -29.4768   13.6153  -24.8595 C   0  0  0  0  0  0  0  0  0  0  0  0
  -28.6551   14.8139  -25.2843 C   0  0  2  0  0  0  0  0  0  0  0  0
  -28.0705   15.4760  -24.1289 C   0  0  0  0  0  0  0  0  0  0  0  0
  -27.2327   14.3960  -23.3953 C   0  0  0  0  0  0  0  0  0  0  0  0
  -27.0670   16.5777  -24.4099 C   0  0  0  0  0  0  0  0  0  0  0  0
  -29.1898   18.1004  -27.4879 Cl  0  0  0  0  0  0  0  0  0  0  0  0
  -29.1898   18.1005  -27.4880 Cl  0  0  0  0  0  0  0  0  0  0  0  0
  1  2  1  0
  2  3  1  0
  3  4  1  0
  4  5  2  0
  4  6  1  0
  6  7  1  0
  7  8  1  6
  8  9  1  0
  9 10  1  0
 10 11  1  0
 10 12  1  0
 12 13  1  0
 13 14  1  0
 14 15  1  0
 15 16  2  0
 16 17  1  0
 17 18  2  0
 18 19  1  0
 19 20  2  0
 20 21  1  0
 21 22  2  0
 22 23  1  0
  7 24  1  0
 24 25  1  0
 25 26  1  0
 26 27  2  0
 27 28  1  0
 28 29  1  0
 28 30  2  0
 30 31  1  0
 31 32  2  0
 32 33  1  0
 33 34  1  1
 34 35  1  0
 34 36  1  0
 33  7  1  0
 23 15  1  0
 32 26  1  0
 22 17  1  0
M  END
$$$$
