
     RDKit          3D

 21 23  0  0  0  0  0  0  0  0999 V2000
  -19.3787   39.3707  -21.7662 O   0  0  0  0  0  0  0  0  0  0  0  0
  -17.9752   38.9693  -21.9416 S   0  0  0  0  0  6  0  0  0  0  0  0
  -17.8183   39.3433  -23.4758 O   0  0  0  0  0  0  0  0  0  0  0  0
  -16.7895   40.0154  -21.3635 O   0  0  0  0  0  0  0  0  0  0  0  0
  -17.5764   37.3029  -21.9019 C   0  0  0  0  0  0  0  0  0  0  0  0
  -16.5194   36.8513  -21.0865 C   0  0  0  0  0  0  0  0  0  0  0  0
  -16.1619   35.5479  -20.8988 C   0  0  0  0  0  0  0  0  0  0  0  0
  -16.8968   34.6144  -21.5605 C   0  0  0  0  0  0  0  0  0  0  0  0
  -17.9466   34.9683  -22.3800 C   0  0  0  0  0  0  0  0  0  0  0  0
  -18.6656   33.9591  -22.9858 C   0  0  0  0  0  0  0  0  0  0  0  0
  -19.7294   34.2893  -23.7748 C   0  0  0  0  0  0  0  0  0  0  0  0
  -20.0726   35.5910  -23.9637 C   0  0  0  0  0  0  0  0  0  0  0  0
  -19.3578   36.6651  -23.3596 C   0  0  0  0  0  0  0  0  0  0  0  0
  -19.7970   37.9491  -23.6543 N   0  0  0  0  0  0  0  0  0  0  0  0
  -20.0406   38.3020  -25.0399 C   0  0  0  0  0  0  0  0  0  0  0  0
  -21.2515   38.7381  -25.5076 C   0  0  0  0  0  0  0  0  0  0  0  0
  -21.4264   39.0535  -26.8381 C   0  0  0  0  0  0  0  0  0  0  0  0
  -20.3988   38.9453  -27.7501 C   0  0  0  0  0  0  0  0  0  0  0  0
  -19.1833   38.5093  -27.2875 C   0  0  0  0  0  0  0  0  0  0  0  0
  -19.0132   38.1978  -25.9710 C   0  0  0  0  0  0  0  0  0  0  0  0
  -18.2966   36.3340  -22.5620 C   0  0  0  0  0  0  0  0  0  0  0  0
  1  2  2  0
  2  3  2  0
  2  4  1  0
  2  5  1  0
  5  6  2  0
  6  7  1  0
  7  8  2  0
  8  9  1  0
  9 10  2  0
 10 11  1  0
 11 12  2  0
 12 13  1  0
 13 14  1  0
 14 15  1  0
 15 16  2  0
 16 17  1  0
 17 18  2  0
 18 19  1  0
 19 20  2  0
 13 21  2  0
 21  5  1  0
 21  9  1  0
 20 15  1  0
M  END
$$$$
