
     RDKit          3D

 23 24  0  0  0  0  0  0  0  0999 V2000
  -14.6248   44.2764  -20.7529 C   0  0  0  0  0  0  0  0  0  0  0  0
  -16.0834   44.6421  -20.6468 C   0  0  0  0  0  0  0  0  0  0  0  0
  -16.3235   45.3825  -19.3478 C   0  0  0  0  0  0  0  0  0  0  0  0
  -16.9902   43.4343  -20.6418 C   0  0  0  0  0  0  0  0  0  0  0  0
  -16.5794   42.6212  -21.8636 C   0  0  0  0  0  0  0  0  0  0  0  0
  -17.5406   41.5188  -22.0082 N   0  0  0  0  0  0  0  0  0  0  0  0
  -17.4665   40.3324  -21.2506 C   0  0  0  0  0  0  0  0  0  0  0  0
  -16.7665   40.3310  -20.2008 O   0  0  0  0  0  0  0  0  0  0  0  0
  -18.1899   39.1141  -21.6707 C   0  0  0  0  0  0  0  0  0  0  0  0
  -19.2729   39.2515  -22.2230 O   0  0  0  0  0  0  0  0  0  0  0  0
  -17.6228   37.8459  -21.4283 N   0  0  0  0  0  0  0  0  0  0  0  0
  -18.2507   36.6031  -21.6028 C   0  0  0  0  0  0  0  0  0  0  0  0
  -17.5913   35.4339  -21.1942 C   0  0  0  0  0  0  0  0  0  0  0  0
  -18.1266   34.1872  -21.3260 C   0  0  0  0  0  0  0  0  0  0  0  0
  -19.3855   34.0759  -21.8927 C   0  0  0  0  0  0  0  0  0  0  0  0
  -20.1375   32.5097  -22.0946 Cl  0  0  0  0  0  0  0  0  0  0  0  0
  -20.0698   35.1832  -22.3070 C   0  0  0  0  0  0  0  0  0  0  0  0
  -19.4786   36.4471  -22.1513 C   0  0  0  0  0  0  0  0  0  0  0  0
  -16.4529   43.4300  -23.0966 C   0  0  0  0  0  0  0  0  0  0  0  0
  -16.7140   44.8806  -22.9712 C   0  0  0  0  0  0  0  0  0  0  0  0
  -15.8851   45.6400  -24.0161 C   0  0  0  0  0  0  0  0  0  0  0  0
  -18.1664   45.1400  -23.3235 C   0  0  0  0  0  0  0  0  0  0  0  0
  -16.4560   45.4871  -21.7227 N   0  0  0  0  0  0  0  0  0  0  0  0
  1  2  1  0
  2  3  1  0
  2  4  1  0
  4  5  1  0
  5  6  1  0
  6  7  1  0
  7  8  2  0
  7  9  1  0
  9 10  2  0
  9 11  1  0
 11 12  1  0
 12 13  2  0
 13 14  1  0
 14 15  2  0
 15 16  1  0
 15 17  1  0
 17 18  2  0
  5 19  1  0
 19 20  1  0
 20 21  1  0
 20 22  1  0
 20 23  1  0
 23  2  1  0
 18 12  1  0
M  END
$$$$
