
     RDKit          3D

 33 35  0  0  0  0  0  0  0  0999 V2000
  -24.8186   14.3171  -29.7004 C   0  0  0  0  0  0  0  0  0  0  0  0
  -25.9775   15.1603  -29.3571 C   0  0  0  0  0  0  0  0  0  0  0  0
  -25.8475   16.5123  -29.1725 O   0  0  0  0  0  0  0  0  0  0  0  0
  -26.6801   17.4824  -28.8728 C   0  0  0  0  0  0  0  0  0  0  0  0
  -27.8622   17.4790  -28.2118 C   0  0  0  0  0  0  0  0  0  0  0  0
  -28.6780   18.5484  -27.9053 C   0  0  0  0  0  0  0  0  0  0  0  0
  -29.7707   18.3633  -27.0848 N   0  0  0  0  0  0  0  0  0  0  0  0
  -30.4104   19.4456  -26.6782 C   0  0  0  0  0  0  0  0  0  0  0  0
  -30.0351   20.7910  -27.0369 C   0  0  0  0  0  0  0  0  0  0  0  0
  -30.5217   21.7729  -26.2849 C   0  0  0  0  0  0  0  0  0  0  0  0
  -30.9921   22.7300  -25.5521 N   0  0  0  0  0  0  0  0  0  0  0  0
  -28.9349   20.9003  -27.8879 C   0  0  0  0  0  0  0  0  0  0  0  0
  -28.5204   22.1425  -28.3708 N   0  0  0  0  0  0  0  0  0  0  0  0
  -28.8267   22.4544  -29.7037 C   0  0  0  0  0  0  0  0  0  0  0  0
  -28.1749   23.5727  -30.3213 C   0  0  0  0  0  0  0  0  0  0  0  0
  -28.5571   24.0563  -31.4708 C   0  0  0  0  0  0  0  0  0  0  0  0
  -29.6166   23.5915  -32.2567 C   0  0  0  0  0  0  0  0  0  0  0  0
  -29.9860   24.1295  -33.3774 F   0  0  0  0  0  0  0  0  0  0  0  0
  -30.2618   22.4603  -31.6426 C   0  0  0  0  0  0  0  0  0  0  0  0
  -31.5824   21.7270  -32.5833 Cl  0  0  0  0  0  0  0  0  0  0  0  0
  -29.8621   21.9806  -30.4684 C   0  0  0  0  0  0  0  0  0  0  0  0
  -28.2633   19.7562  -28.3120 C   0  0  0  0  0  0  0  0  0  0  0  0
  -27.0762   19.8980  -29.0186 C   0  0  0  0  0  0  0  0  0  0  0  0
  -26.2885   18.8443  -29.3168 C   0  0  0  0  0  0  0  0  0  0  0  0
  -25.1203   18.9237  -30.0752 N   0  0  0  0  0  0  0  0  0  0  0  0
  -24.4765   20.0093  -30.6495 C   0  0  0  0  0  0  0  0  0  0  0  0
  -24.6899   21.1756  -30.2420 O   0  0  0  0  0  0  0  0  0  0  0  0
  -23.5241   19.7812  -31.7880 C   0  0  0  0  0  0  0  0  0  0  0  0
  -22.7073   20.6645  -32.2542 C   0  0  0  0  0  0  0  0  0  0  0  0
  -23.0245   22.0542  -32.5744 C   0  0  0  0  0  0  0  0  0  0  0  0
  -22.0081   22.8930  -33.1533 N   0  0  0  0  0  0  0  0  0  0  0  0
  -22.7985   23.7101  -34.1466 C   0  0  0  0  0  0  0  0  0  0  0  0
  -21.6683   23.9842  -32.1679 C   0  0  0  0  0  0  0  0  0  0  0  0
  1  2  1  0
  2  3  1  0
  3  4  1  0
  4  5  2  0
  5  6  1  0
  6  7  2  0
  7  8  1  0
  8  9  2  0
  9 10  1  0
 10 11  3  0
  9 12  1  0
 12 13  1  0
 13 14  1  0
 14 15  2  0
 15 16  1  0
 16 17  2  0
 17 18  1  0
 17 19  1  0
 19 20  1  0
 19 21  2  0
 12 22  2  0
 22 23  1  0
 23 24  2  0
 24 25  1  0
 25 26  1  0
 26 27  2  0
 26 28  1  0
 28 29  2  0
 29 30  1  0
 30 31  1  0
 31 32  1  0
 31 33  1  0
 24  4  1  0
 22  6  1  0
 21 14  1  0
M  END
$$$$
