
     RDKit          3D

 13 14  0  0  0  0  0  0  0  0999 V2000
  -19.8311   32.0446  -22.3792 N   0  0  0  0  0  0  0  0  0  0  0  0
  -18.7727   32.5294  -23.2292 C   0  0  0  0  0  0  0  0  0  0  0  0
  -18.2973   33.8333  -22.6981 C   0  0  0  0  0  0  0  0  0  0  0  0
  -17.4197   34.0151  -21.6385 C   0  0  0  0  0  0  0  0  0  0  0  0
  -17.2853   35.3794  -21.5236 C   0  0  0  0  0  0  0  0  0  0  0  0
  -18.0627   35.9765  -22.4893 C   0  0  0  0  0  0  0  0  0  0  0  0
  -18.2002   37.4287  -22.7080 C   0  0  0  0  0  0  0  0  0  0  0  0
  -17.4212   38.3276  -22.0089 C   0  0  0  0  0  0  0  0  0  0  0  0
  -17.5586   39.6915  -22.2224 C   0  0  0  0  0  0  0  0  0  0  0  0
  -18.4923   40.1227  -23.1494 C   0  0  0  0  0  0  0  0  0  0  0  0
  -19.2283   39.2179  -23.8066 N   0  0  0  0  0  0  0  0  0  0  0  0
  -19.1202   37.8894  -23.6236 C   0  0  0  0  0  0  0  0  0  0  0  0
  -18.6393   35.0122  -23.1555 O   0  0  0  0  0  0  0  0  0  0  0  0
  1  2  1  0
  2  3  1  0
  3  4  2  0
  4  5  1  0
  5  6  2  0
  6  7  1  0
  7  8  2  0
  8  9  1  0
  9 10  2  0
 10 11  1  0
 11 12  2  0
  6 13  1  0
 13  3  1  0
 12  7  1  0
M  END
$$$$
