
     RDKit          3D

 26 28  0  0  0  0  0  0  0  0999 V2000
  -11.9220    2.0998  -33.2085 C   0  0  0  0  0  0  0  0  0  0  0  0
  -12.7290    1.2442  -32.2567 C   0  0  0  0  0  0  0  0  0  0  0  0
  -12.8403    1.9652  -30.9329 C   0  0  0  0  0  0  0  0  0  0  0  0
  -11.9942   -0.0745  -32.1108 C   0  0  0  0  0  0  0  0  0  0  0  0
  -12.6959   -0.9351  -31.0890 C   0  0  0  0  0  0  0  0  0  0  0  0
  -14.1154   -1.2101  -31.4505 C   0  0  0  0  0  0  0  0  0  0  0  0
  -14.2502   -2.5797  -32.0705 C   0  0  0  0  0  0  0  0  0  0  0  0
  -14.9508   -1.1242  -30.1687 C   0  0  0  0  0  0  0  0  0  0  0  0
  -14.6936   -0.2214  -32.3886 C   0  0  0  0  0  0  0  0  0  0  0  0
  -15.9478   -0.4802  -32.9015 C   0  0  0  0  0  0  0  0  0  0  0  0
  -16.5885    0.3578  -33.7779 C   0  0  0  0  0  0  0  0  0  0  0  0
  -17.9193   -0.0008  -34.2689 C   0  0  0  0  0  0  0  0  0  0  0  0
  -18.5209   -1.0109  -33.7740 O   0  0  0  0  0  0  0  0  0  0  0  0
  -18.6164    0.6964  -35.2741 N   0  0  0  0  0  0  0  0  0  0  0  0
  -19.9288    0.3059  -35.6572 C   0  0  0  0  0  0  0  0  0  0  0  0
  -20.6843   -0.5652  -34.8997 C   0  0  0  0  0  0  0  0  0  0  0  0
  -21.9571   -0.9380  -35.2802 C   0  0  0  0  0  0  0  0  0  0  0  0
  -22.5336   -0.4508  -36.4452 C   0  0  0  0  0  0  0  0  0  0  0  0
  -23.8747   -0.8327  -36.8625 C   0  0  0  0  0  0  0  0  0  0  0  0
  -24.1367   -0.7979  -38.0897 O   0  0  0  0  0  0  0  0  0  0  0  0
  -24.8609   -1.2260  -35.9916 O   0  0  0  0  0  0  0  0  0  0  0  0
  -21.7771    0.4182  -37.1986 C   0  0  0  0  0  0  0  0  0  0  0  0
  -20.5027    0.7896  -36.8149 C   0  0  0  0  0  0  0  0  0  0  0  0
  -15.9274    1.5066  -34.1487 C   0  0  0  0  0  0  0  0  0  0  0  0
  -14.6704    1.8008  -33.6568 C   0  0  0  0  0  0  0  0  0  0  0  0
  -14.0786    0.9292  -32.7855 C   0  0  0  0  0  0  0  0  0  0  0  0
  1  2  1  0
  2  3  1  0
  2  4  1  0
  4  5  1  0
  5  6  1  0
  6  7  1  0
  6  8  1  0
  6  9  1  0
  9 10  2  0
 10 11  1  0
 11 12  1  0
 12 13  2  0
 12 14  1  0
 14 15  1  0
 15 16  2  0
 16 17  1  0
 17 18  2  0
 18 19  1  0
 19 20  2  0
 19 21  1  0
 18 22  1  0
 22 23  2  0
 11 24  2  0
 24 25  1  0
 25 26  2  0
 26  2  1  0
 26  9  1  0
 23 15  1  0
M  END
$$$$
