
     RDKit          3D

 26 28  0  0  0  0  0  0  0  0999 V2000
  -11.5198   44.3304  -17.6896 C   0  0  0  0  0  0  0  0  0  0  0  0
  -12.3595   43.1662  -18.1666 C   0  0  0  0  0  0  0  0  0  0  0  0
  -13.5922   43.7404  -18.8322 C   0  0  0  0  0  0  0  0  0  0  0  0
  -14.2915   42.6716  -19.4250 O   0  0  0  0  0  0  0  0  0  0  0  0
  -15.4615   42.8624  -20.1704 C   0  0  0  0  0  0  0  0  0  0  0  0
  -16.0681   44.0758  -20.3093 C   0  0  0  0  0  0  0  0  0  0  0  0
  -17.2318   44.1376  -21.0791 C   0  0  0  0  0  0  0  0  0  0  0  0
  -17.7694   43.0579  -21.6809 N   0  0  0  0  0  0  0  0  0  0  0  0
  -18.8656   42.9441  -22.4458 C   0  0  0  0  0  0  0  0  0  0  0  0
  -19.8201   43.9774  -22.8596 C   0  0  0  0  0  0  0  0  0  0  0  0
  -20.9497   43.6654  -23.7405 C   0  0  0  0  0  0  0  0  0  0  0  0
  -19.6714   45.1554  -22.4540 O   0  0  0  0  0  0  0  0  0  0  0  0
  -18.9432   41.5921  -22.7992 C   0  0  0  0  0  0  0  0  0  0  0  0
  -17.8978   40.8883  -22.2506 C   0  0  0  0  0  0  0  0  0  0  0  0
  -17.5833   39.4728  -22.3510 C   0  0  0  0  0  0  0  0  0  0  0  0
  -16.6164   38.9536  -23.1818 C   0  0  0  0  0  0  0  0  0  0  0  0
  -16.3418   37.6024  -23.2490 C   0  0  0  0  0  0  0  0  0  0  0  0
  -17.0552   36.7174  -22.4583 C   0  0  0  0  0  0  0  0  0  0  0  0
  -18.0140   37.2180  -21.6325 C   0  0  0  0  0  0  0  0  0  0  0  0
  -18.2831   38.5829  -21.5724 C   0  0  0  0  0  0  0  0  0  0  0  0
  -19.5252   39.1886  -20.5030 S   0  0  0  0  0  6  0  0  0  0  0  0
  -20.6868   40.1693  -21.4633 C   0  0  0  0  0  0  0  0  0  0  0  0
  -18.9097   40.1390  -19.4855 O   0  0  0  0  0  0  0  0  0  0  0  0
  -20.2385   38.1292  -19.7531 O   0  0  0  0  0  0  0  0  0  0  0  0
  -17.1740   41.8344  -21.5517 C   0  0  0  0  0  0  0  0  0  0  0  0
  -16.0256   41.7783  -20.7909 C   0  0  0  0  0  0  0  0  0  0  0  0
  1  2  1  0
  2  3  1  0
  3  4  1  0
  4  5  1  0
  5  6  1  0
  6  7  2  0
  7  8  1  0
  8  9  1  0
  9 10  1  0
 10 11  1  0
 10 12  2  0
  9 13  2  0
 13 14  1  0
 14 15  1  0
 15 16  2  0
 16 17  1  0
 17 18  2  0
 18 19  1  0
 19 20  2  0
 20 21  1  0
 21 22  1  0
 21 23  2  0
 21 24  2  0
 14 25  2  0
 25 26  1  0
 26  5  2  0
 25  8  1  0
 20 15  1  0
M  END
$$$$
