
     RDKit          3D

 37 41  0  0  0  0  0  0  0  0999 V2000
  -19.7419   19.6286  -37.2965 Cl  0  0  0  0  0  0  0  0  0  0  0  0
  -17.7737   14.8207  -36.0439 O   0  0  0  0  0  0  0  0  0  0  0  0
  -17.4830   16.0078  -35.7060 C   0  0  0  0  0  0  0  0  0  0  0  0
  -16.1554   16.2040  -35.0977 C   0  0  0  0  0  0  0  0  0  0  0  0
  -15.0639   16.6241  -35.8243 C   0  0  0  0  0  0  0  0  0  0  0  0
  -15.1646   16.8803  -37.1719 C   0  0  0  0  0  0  0  0  0  0  0  0
  -14.0823   17.2992  -37.9154 C   0  0  0  0  0  0  0  0  0  0  0  0
  -12.8459   17.4748  -37.3082 C   0  0  0  0  0  0  0  0  0  0  0  0
  -12.7528   17.2184  -35.9671 C   0  0  0  0  0  0  0  0  0  0  0  0
  -13.8317   16.7970  -35.2087 C   0  0  0  0  0  0  0  0  0  0  0  0
  -13.7394   16.5362  -33.8602 C   0  0  0  0  0  0  0  0  0  0  0  0
  -14.8398   16.1101  -33.1196 C   0  0  0  0  0  0  0  0  0  0  0  0
  -14.7389   15.8391  -31.7520 C   0  0  0  0  0  0  0  0  0  0  0  0
  -15.8314   15.4114  -31.0247 C   0  0  0  0  0  0  0  0  0  0  0  0
  -17.0378   15.2432  -31.6260 C   0  0  0  0  0  0  0  0  0  0  0  0
  -17.1377   15.5117  -32.9837 C   0  0  0  0  0  0  0  0  0  0  0  0
  -16.0632   15.9393  -33.7335 C   0  0  0  0  0  0  0  0  0  0  0  0
  -18.3998   17.0555  -35.9140 N   0  0  0  0  0  0  0  0  0  0  0  0
  -18.0575   18.3859  -35.5284 C   0  0  0  0  0  0  0  0  0  0  0  0
  -19.0018   19.4328  -36.0561 C   0  0  0  0  0  0  0  0  0  0  0  0
  -19.7127   19.1081  -37.3103 C   0  0  0  0  0  0  0  0  0  0  0  0
  -20.9820   19.7255  -37.4543 N   0  0  0  0  0  0  0  0  0  0  0  0
  -21.9926   19.5227  -36.4950 C   0  0  0  0  0  0  0  0  0  0  0  0
  -22.5699   20.9323  -36.2810 C   0  0  0  0  0  0  0  0  0  0  0  0
  -23.2849   21.2604  -37.5957 C   0  0  0  0  0  0  0  0  0  0  0  0
  -22.5230   20.9405  -38.8193 C   0  0  1  0  0  0  0  0  0  0  0  0
  -21.8921   22.1693  -39.3636 C   0  0  0  0  0  0  0  0  0  0  0  0
  -20.6251   22.2116  -39.3360 O   0  0  0  0  0  0  0  0  0  0  0  0
  -22.6400   23.2406  -39.8873 N   0  0  0  0  0  0  0  0  0  0  0  0
  -21.9290   24.4098  -40.3749 C   0  0  0  0  0  0  0  0  0  0  0  0
  -22.6230   25.0171  -41.5732 C   0  0  0  0  0  0  0  0  0  0  0  0
  -24.0098   24.9591  -41.4502 O   0  0  0  0  0  0  0  0  0  0  0  0
  -24.4327   23.6356  -41.3782 C   0  0  0  0  0  0  0  0  0  0  0  0
  -24.0810   23.1648  -39.9519 C   0  0  0  0  0  0  0  0  0  0  0  0
  -21.5318   19.8229  -38.7410 C   0  0  0  0  0  0  0  0  0  0  0  0
  -19.7818   17.6630  -37.7056 C   0  0  0  0  0  0  0  0  0  0  0  0
  -19.6778   16.7236  -36.5294 C   0  0  0  0  0  0  0  0  0  0  0  0
  2  3  2  0
  3  4  1  0
  4  5  1  0
  5  6  2  0
  6  7  1  0
  7  8  2  0
  8  9  1  0
  9 10  2  0
 10 11  1  0
 11 12  2  0
 12 13  1  0
 13 14  2  0
 14 15  1  0
 15 16  2  0
 16 17  1  0
  3 18  1  0
 18 19  1  0
 19 20  1  0
 20 21  1  0
 21 22  1  0
 22 23  1  0
 23 24  1  0
 24 25  1  0
 25 26  1  0
 26 27  1  1
 27 28  2  0
 27 29  1  0
 29 30  1  0
 30 31  1  0
 31 32  1  0
 32 33  1  0
 33 34  1  0
 26 35  1  0
 21 36  1  0
 36 37  1  0
 17  4  2  0
 37 18  1  0
 10  5  1  0
 17 12  1  0
 35 22  1  0
 34 29  1  0
M  END
$$$$
