
     RDKit          3D

 26 29  0  0  0  0  0  0  0  0999 V2000
  -18.8170   34.0260  -25.8985 C   0  0  0  0  0  0  0  0  0  0  0  0
  -18.8546   35.2526  -25.1827 O   0  0  0  0  0  0  0  0  0  0  0  0
  -18.5478   35.2947  -23.8393 C   0  0  0  0  0  0  0  0  0  0  0  0
  -18.2362   34.1128  -23.2061 C   0  0  0  0  0  0  0  0  0  0  0  0
  -17.9215   34.0821  -21.8717 C   0  0  0  0  0  0  0  0  0  0  0  0
  -17.6154   32.8626  -21.2835 O   0  0  0  0  0  0  0  0  0  0  0  0
  -17.6627   31.7017  -22.0999 C   0  0  0  0  0  0  0  0  0  0  0  0
  -17.9231   35.2681  -21.1704 C   0  0  0  0  0  0  0  0  0  0  0  0
  -18.2259   36.4753  -21.7517 C   0  0  0  0  0  0  0  0  0  0  0  0
  -18.2252   37.7339  -21.0053 C   0  0  0  0  0  0  0  0  0  0  0  0
  -17.9051   37.8871  -19.7212 N   0  0  0  0  0  0  0  0  0  0  0  0
  -18.0225   39.1794  -19.3953 N   0  0  0  0  0  0  0  0  0  0  0  0
  -18.4218   39.8386  -20.4949 C   0  0  0  0  0  0  0  0  0  0  0  0
  -18.6740   41.2402  -20.6088 N   0  0  0  0  0  0  0  0  0  0  0  0
  -18.9732   41.7957  -21.8833 C   0  0  0  0  0  0  0  0  0  0  0  0
  -18.9329   42.7675  -22.5519 N   0  0  0  0  0  0  0  0  0  0  0  0
  -19.3049   42.9936  -23.7815 C   0  0  0  0  0  0  0  0  0  0  0  0
  -19.2426   44.1518  -24.5379 C   0  0  0  0  0  0  0  0  0  0  0  0
  -18.7371   45.3267  -24.0600 F   0  0  0  0  0  0  0  0  0  0  0  0
  -19.6965   44.1547  -25.8192 C   0  0  0  0  0  0  0  0  0  0  0  0
  -20.2384   43.0694  -26.4721 C   0  0  0  0  0  0  0  0  0  0  0  0
  -20.3254   41.8895  -25.7671 C   0  0  0  0  0  0  0  0  0  0  0  0
  -19.8576   41.8503  -24.4179 C   0  0  0  0  0  0  0  0  0  0  0  0
  -19.7707   40.5997  -23.1666 S   0  0  0  0  0  0  0  0  0  0  0  0
  -18.5327   38.9297  -21.4445 O   0  0  0  0  0  0  0  0  0  0  0  0
  -18.5394   36.4633  -23.1057 C   0  0  0  0  0  0  0  0  0  0  0  0
  1  2  1  0
  2  3  1  0
  3  4  2  0
  4  5  1  0
  5  6  1  0
  6  7  1  0
  5  8  2  0
  8  9  1  0
  9 10  1  0
 10 11  2  0
 11 12  1  0
 12 13  2  0
 13 14  1  0
 14 15  1  0
 15 16  2  0
 16 17  1  0
 17 18  2  0
 18 19  1  0
 18 20  1  0
 20 21  2  0
 21 22  1  0
 22 23  2  0
 23 24  1  0
 13 25  1  0
  9 26  2  0
 26  3  1  0
 25 10  1  0
 24 15  1  0
 23 17  1  0
M  END
$$$$
