
     RDKit          3D

 20 23  0  0  0  0  0  0  0  0999 V2000
  -19.1597   33.3340  -23.8992 C   0  0  0  0  0  0  0  0  0  0  0  0
  -18.7483   33.2739  -22.4525 C   0  0  2  0  0  0  0  0  0  0  0  0
  -19.7697   33.8743  -21.5392 C   0  0  0  0  0  0  0  0  0  0  0  0
  -20.0217   35.2897  -22.0587 C   0  0  0  0  0  0  0  0  0  0  0  0
  -18.7643   36.0833  -21.8704 C   0  0  2  0  0  0  0  0  0  0  0  0
  -18.8892   37.4738  -22.3157 C   0  0  0  0  0  0  0  0  0  0  0  0
  -20.0819   38.0709  -22.6609 C   0  0  0  0  0  0  0  0  0  0  0  0
  -20.1321   39.3868  -23.0734 C   0  0  0  0  0  0  0  0  0  0  0  0
  -18.9732   40.1503  -23.1523 C   0  0  0  0  0  0  0  0  0  0  0  0
  -18.9559   41.4607  -23.5540 O   0  0  0  0  0  0  0  0  0  0  0  0
  -17.7868   39.5411  -22.8042 C   0  0  0  0  0  0  0  0  0  0  0  0
  -17.7436   38.2316  -22.3946 C   0  0  0  0  0  0  0  0  0  0  0  0
  -16.4229   37.6700  -22.0426 C   0  0  0  0  0  0  0  0  0  0  0  0
  -16.3400   36.1919  -22.0266 C   0  0  0  0  0  0  0  0  0  0  0  0
  -17.5641   35.4826  -22.5671 C   0  0  1  0  0  0  0  0  0  0  0  0
  -17.4448   34.0498  -22.2127 C   0  0  2  0  0  0  0  0  0  0  0  0
  -16.5014   33.2463  -23.0302 C   0  0  0  0  0  0  0  0  0  0  0  0
  -16.9383   31.8170  -22.7823 C   0  0  0  0  0  0  0  0  0  0  0  0
  -18.2896   31.9074  -22.0697 C   0  0  2  0  0  0  0  0  0  0  0  0
  -19.1432   30.8992  -22.4407 O   0  0  0  0  0  0  0  0  0  0  0  0
  2  1  1  6
  2  3  1  0
  3  4  1  0
  5  4  1  6
  5  6  1  0
  6  7  2  0
  7  8  1  0
  8  9  2  0
  9 10  1  0
  9 11  1  0
 11 12  2  0
 12 13  1  0
 13 14  1  0
 15 14  1  1
 15 16  1  0
 16 17  1  6
 17 18  1  0
 18 19  1  0
 19 20  1  6
 16  2  1  0
 19  2  1  0
 15  5  1  0
 12  6  1  0
M  END
$$$$
