
     RDKit          3D

 24 26  0  0  0  0  0  0  0  0999 V2000
  -15.6699   31.1902  -21.8079 C   0  0  0  0  0  0  0  0  0  0  0  0
  -16.9930   31.2900  -21.3775 O   0  0  0  0  0  0  0  0  0  0  0  0
  -17.6695   32.4854  -21.5371 C   0  0  0  0  0  0  0  0  0  0  0  0
  -19.0339   32.4516  -21.8678 C   0  0  0  0  0  0  0  0  0  0  0  0
  -19.7607   33.6117  -22.0391 C   0  0  0  0  0  0  0  0  0  0  0  0
  -19.1333   34.8475  -21.8813 C   0  0  0  0  0  0  0  0  0  0  0  0
  -19.4983   36.1181  -21.9615 N   0  0  0  0  0  0  0  0  0  0  0  0
  -18.4601   36.9100  -21.7044 C   0  0  0  0  0  0  0  0  0  0  0  0
  -18.4592   38.6568  -21.6834 S   0  0  0  0  0  4  0  0  0  0  0  0
  -19.5111   39.2205  -20.7400 O   0  0  0  0  0  0  0  0  0  0  0  0
  -18.7211   39.3852  -23.3032 C   0  0  0  0  0  0  0  0  0  0  0  0
  -18.7314   40.8645  -23.0969 C   0  0  0  0  0  0  0  0  0  0  0  0
  -19.9017   41.5401  -23.1566 N   0  0  0  0  0  0  0  0  0  0  0  0
  -19.9948   42.8667  -22.9688 C   0  0  0  0  0  0  0  0  0  0  0  0
  -18.8492   43.5873  -22.7014 C   0  0  0  0  0  0  0  0  0  0  0  0
  -18.9195   45.0535  -22.4863 C   0  0  0  0  0  0  0  0  0  0  0  0
  -17.6472   42.9237  -22.6356 C   0  0  0  0  0  0  0  0  0  0  0  0
  -16.4855   43.6777  -22.3629 O   0  0  0  0  0  0  0  0  0  0  0  0
  -15.8979   44.3806  -23.4722 C   0  0  0  0  0  0  0  0  0  0  0  0
  -17.5845   41.5623  -22.8326 C   0  0  0  0  0  0  0  0  0  0  0  0
  -16.2650   40.8897  -22.7512 C   0  0  0  0  0  0  0  0  0  0  0  0
  -17.4012   36.1340  -21.4534 N   0  0  0  0  0  0  0  0  0  0  0  0
  -17.7937   34.8595  -21.5565 C   0  0  0  0  0  0  0  0  0  0  0  0
  -17.0527   33.7020  -21.3819 C   0  0  0  0  0  0  0  0  0  0  0  0
  1  2  1  0
  2  3  1  0
  3  4  2  0
  4  5  1  0
  5  6  2  0
  6  7  1  0
  7  8  2  0
  8  9  1  0
  9 10  2  0
  9 11  1  0
 11 12  1  0
 12 13  2  0
 13 14  1  0
 14 15  2  0
 15 16  1  0
 15 17  1  0
 17 18  1  0
 18 19  1  0
 17 20  2  0
 20 21  1  0
  8 22  1  0
 22 23  1  0
 23 24  2  0
 24  3  1  0
 23  6  1  0
 20 12  1  0
M  END
$$$$
