
     RDKit          3D

 27 28  0  0  0  0  0  0  0  0999 V2000
  -24.9928   19.8431  -29.2456 N   0  0  0  0  0  0  0  0  0  0  0  0
  -24.7128   21.1505  -29.8023 C   0  0  0  0  0  0  0  0  0  0  0  0
  -23.3998   21.1542  -30.4972 C   0  0  0  0  0  0  0  0  0  0  0  0
  -22.7953   22.4470  -30.8421 C   0  0  0  0  0  0  0  0  0  0  0  0
  -21.5615   22.5720  -31.4768 N   0  0  0  0  0  0  0  0  0  0  0  0
  -20.8104   21.4747  -31.9107 C   0  0  0  0  0  0  0  0  0  0  0  0
  -21.1562   20.7379  -33.1454 C   0  0  0  0  0  0  0  0  0  0  0  0
  -20.2617   19.6204  -33.5433 C   0  0  0  0  0  0  0  0  0  0  0  0
  -20.1932   19.4649  -35.0616 C   0  0  0  0  0  0  0  0  0  0  0  0
  -19.4495   18.2685  -35.3988 N   0  0  0  0  0  0  0  0  0  0  0  0
  -18.6893   18.2693  -36.5681 C   0  0  0  0  0  0  0  0  0  0  0  0
  -19.2419   18.3711  -37.9074 C   0  0  0  0  0  0  0  0  0  0  0  0
  -18.3256   17.9181  -39.0286 C   0  0  0  0  0  0  0  0  0  0  0  0
  -18.8562   18.4678  -40.3024 N   0  0  0  0  0  0  0  0  0  0  0  0
  -18.5799   19.7731  -40.7411 C   0  0  0  0  0  0  0  0  0  0  0  0
  -17.3790   20.1112  -40.8583 O   0  0  0  0  0  0  0  0  0  0  0  0
  -19.6796   20.7593  -41.0455 C   0  0  0  0  0  0  0  0  0  0  0  0
  -19.3039   21.4090  -42.3128 C   0  0  0  0  0  0  0  0  0  0  0  0
  -17.9115   21.4784  -42.5094 C   0  0  0  0  0  0  0  0  0  0  0  0
  -17.4461   22.1729  -43.5855 C   0  0  0  0  0  0  0  0  0  0  0  0
  -18.3144   22.7870  -44.4586 C   0  0  0  0  0  0  0  0  0  0  0  0
  -19.6893   22.7007  -44.2413 C   0  0  0  0  0  0  0  0  0  0  0  0
  -20.5712   23.2720  -45.1421 C   0  0  0  0  0  0  0  0  0  0  0  0
  -21.9220   23.1380  -44.9437 C   0  0  0  0  0  0  0  0  0  0  0  0
  -22.4029   22.4431  -43.8568 C   0  0  0  0  0  0  0  0  0  0  0  0
  -21.5474   21.8652  -42.9422 C   0  0  0  0  0  0  0  0  0  0  0  0
  -20.1900   21.9991  -43.1464 C   0  0  0  0  0  0  0  0  0  0  0  0
  1  2  1  0
  2  3  1  0
  3  4  1  0
  4  5  1  0
  5  6  1  0
  6  7  1  0
  7  8  1  0
  8  9  1  0
  9 10  1  0
 10 11  1  0
 11 12  1  0
 12 13  1  0
 13 14  1  0
 14 15  1  0
 15 16  2  0
 15 17  1  0
 17 18  1  0
 18 19  2  0
 19 20  1  0
 20 21  2  0
 21 22  1  0
 22 23  2  0
 23 24  1  0
 24 25  2  0
 25 26  1  0
 26 27  2  0
 27 18  1  0
 27 22  1  0
M  END
$$$$
