
     RDKit          3D

 17 18  0  0  0  0  0  0  0  0999 V2000
  -17.0353   39.9256  -20.4000 C   0  0  0  0  0  0  0  0  0  0  0  0
  -18.1423   39.1930  -21.0362 C   0  0  0  0  0  0  0  0  0  0  0  0
  -17.8691   37.9858  -21.6586 C   0  0  0  0  0  0  0  0  0  0  0  0
  -18.8295   37.2595  -22.2616 N   0  0  0  0  0  0  0  0  0  0  0  0
  -18.5255   36.0125  -22.9001 C   0  0  1  0  0  0  0  0  0  0  0  0
  -17.0660   35.8634  -23.2267 C   0  0  0  0  0  0  0  0  0  0  0  0
  -16.7877   34.4257  -22.7746 C   0  0  2  0  0  0  0  0  0  0  0  0
  -15.9556   33.7683  -23.6405 O   0  0  0  0  0  0  0  0  0  0  0  0
  -18.2039   33.8823  -22.7676 C   0  0  1  0  0  0  0  0  0  0  0  0
  -18.3041   32.5661  -22.0500 C   0  0  0  0  0  0  0  0  0  0  0  0
  -18.2964   32.7828  -20.6908 O   0  0  0  0  0  0  0  0  0  0  0  0
  -18.8703   34.9088  -22.0993 O   0  0  0  0  0  0  0  0  0  0  0  0
  -20.0751   37.7638  -22.2314 C   0  0  0  0  0  0  0  0  0  0  0  0
  -20.9703   37.0689  -22.8035 O   0  0  0  0  0  0  0  0  0  0  0  0
  -20.3754   38.9325  -21.6360 N   0  0  0  0  0  0  0  0  0  0  0  0
  -19.4326   39.6716  -21.0295 C   0  0  0  0  0  0  0  0  0  0  0  0
  -19.6511   40.7565  -20.4647 O   0  0  0  0  0  0  0  0  0  0  0  0
  1  2  1  0
  2  3  2  0
  3  4  1  0
  5  4  1  1
  5  6  1  0
  6  7  1  0
  7  8  1  6
  7  9  1  0
  9 10  1  1
 10 11  1  0
  9 12  1  0
  4 13  1  0
 13 14  2  0
 13 15  1  0
 15 16  1  0
 16 17  2  0
 16  2  1  0
 12  5  1  0
M  END
$$$$
