
     RDKit          3D

 40 43  0  0  0  0  0  0  0  0999 V2000
  -20.8809   16.5376  -30.6085 O   0  0  0  0  0  0  0  0  0  0  0  0
  -21.0991   16.2172  -31.8148 C   0  0  0  0  0  0  0  0  0  0  0  0
  -21.8506   15.0039  -32.1594 C   0  0  0  0  0  0  0  0  0  0  0  0
  -22.8029   15.3531  -33.2649 C   0  0  0  0  0  0  0  0  0  0  0  0
  -22.8732   16.6335  -33.7451 C   0  0  0  0  0  0  0  0  0  0  0  0
  -23.7399   16.9385  -34.7597 C   0  0  0  0  0  0  0  0  0  0  0  0
  -24.5386   15.9659  -35.2967 C   0  0  0  0  0  0  0  0  0  0  0  0
  -24.4625   14.6694  -34.8050 C   0  0  0  0  0  0  0  0  0  0  0  0
  -25.2538   13.6525  -35.3213 O   0  0  0  0  0  0  0  0  0  0  0  0
  -24.8539   12.7383  -36.2950 C   0  0  0  0  0  0  0  0  0  0  0  0
  -24.4523   13.4805  -37.4059 F   0  0  0  0  0  0  0  0  0  0  0  0
  -25.9335   11.9629  -36.6565 F   0  0  0  0  0  0  0  0  0  0  0  0
  -23.7810   11.9619  -35.9102 F   0  0  0  0  0  0  0  0  0  0  0  0
  -23.5907   14.3576  -33.7832 C   0  0  0  0  0  0  0  0  0  0  0  0
  -20.5918   17.0727  -32.8237 N   0  0  0  0  0  0  0  0  0  0  0  0
  -19.3757   17.7768  -32.5718 C   0  0  0  0  0  0  0  0  0  0  0  0
  -18.4408   17.2345  -31.7191 C   0  0  0  0  0  0  0  0  0  0  0  0
  -17.2455   17.9003  -31.4624 C   0  0  0  0  0  0  0  0  0  0  0  0
  -17.0306   19.0922  -32.0730 C   0  0  0  0  0  0  0  0  0  0  0  0
  -15.8390   19.9020  -31.9659 C   0  0  0  0  0  0  0  0  0  0  0  0
  -14.7032   19.6687  -32.8781 C   0  0  0  0  0  0  0  0  0  0  0  0
  -14.8538   20.1129  -34.2873 C   0  0  0  0  0  0  0  0  0  0  0  0
  -13.6963   19.8036  -35.1944 C   0  0  0  0  0  0  0  0  0  0  0  0
  -14.0624   18.9661  -36.3911 C   0  0  0  0  0  0  0  0  0  0  0  0
  -14.2871   17.8053  -36.6312 N   0  0  0  0  0  0  0  0  0  0  0  0
  -14.6309   17.3793  -37.8004 N   0  0  0  0  0  0  0  0  0  0  0  0
  -14.7757   18.0012  -38.7708 C   0  0  0  0  0  0  0  0  0  0  0  0
  -15.1208   17.9812  -40.1905 N   0  0  0  0  0  0  0  0  0  0  0  0
  -15.1617   19.2114  -40.9316 C   0  0  0  0  0  0  0  0  0  0  0  0
  -14.9191   20.2606  -40.3076 O   0  0  0  0  0  0  0  0  0  0  0  0
  -15.4874   19.1100  -42.3638 C   0  0  0  0  0  0  0  0  0  0  0  0
  -16.3658   20.1836  -42.8392 C   0  0  0  0  0  0  0  0  0  0  0  0
  -17.7034   20.2942  -42.4941 C   0  0  0  0  0  0  0  0  0  0  0  0
  -18.5078   21.3134  -42.9509 C   0  0  0  0  0  0  0  0  0  0  0  0
  -17.9554   22.2612  -43.7873 C   0  0  0  0  0  0  0  0  0  0  0  0
  -16.6329   22.1461  -44.1250 C   0  0  0  0  0  0  0  0  0  0  0  0
  -15.8701   21.1284  -43.6554 N   0  0  0  0  0  0  0  0  0  0  0  0
  -14.3573   19.7354  -38.0683 S   0  0  0  0  0  0  0  0  0  0  0  0
  -18.0015   19.5815  -32.9139 N   0  0  0  0  0  0  0  0  0  0  0  0
  -19.1176   18.9486  -33.1469 N   0  0  0  0  0  0  0  0  0  0  0  0
  1  2  2  0
  2  3  1  0
  3  4  1  0
  4  5  2  0
  5  6  1  0
  6  7  2  0
  7  8  1  0
  8  9  1  0
  9 10  1  0
 10 11  1  0
 10 12  1  0
 10 13  1  0
  8 14  2  0
  2 15  1  0
 15 16  1  0
 16 17  2  0
 17 18  1  0
 18 19  2  0
 19 20  1  0
 20 21  1  0
 21 22  1  0
 22 23  1  0
 23 24  1  0
 24 25  2  0
 25 26  1  0
 26 27  2  0
 27 28  1  0
 28 29  1  0
 29 30  2  0
 29 31  1  0
 31 32  1  0
 32 33  2  0
 33 34  1  0
 34 35  2  0
 35 36  1  0
 36 37  2  0
 27 38  1  0
 19 39  1  0
 39 40  2  0
 14  4  1  0
 40 16  1  0
 38 24  1  0
 37 32  1  0
M  END
$$$$
