
     RDKit          3D

 22 23  0  0  0  0  0  0  0  0999 V2000
  -14.2412   43.4377  -19.2792 C   0  0  0  0  0  0  0  0  0  0  0  0
  -15.4209   43.8715  -19.8769 O   0  0  0  0  0  0  0  0  0  0  0  0
  -16.0154   43.2841  -20.9746 C   0  0  0  0  0  0  0  0  0  0  0  0
  -16.3606   41.9499  -20.9804 C   0  0  0  0  0  0  0  0  0  0  0  0
  -16.9568   41.3226  -22.0569 C   0  0  0  0  0  0  0  0  0  0  0  0
  -17.2835   39.8967  -21.9591 C   0  0  0  0  0  0  0  0  0  0  0  0
  -18.1370   39.3061  -22.7642 C   0  0  0  0  0  0  0  0  0  0  0  0
  -18.3643   37.8746  -22.6875 C   0  0  0  0  0  0  0  0  0  0  0  0
  -17.7213   36.9226  -23.4362 C   0  0  0  0  0  0  0  0  0  0  0  0
  -17.9833   35.5623  -23.3175 C   0  0  0  0  0  0  0  0  0  0  0  0
  -18.9223   35.1081  -22.4207 C   0  0  0  0  0  0  0  0  0  0  0  0
  -19.2130   33.7542  -22.2724 O   0  0  0  0  0  0  0  0  0  0  0  0
  -20.5169   33.2679  -22.3702 C   0  0  0  0  0  0  0  0  0  0  0  0
  -19.5738   36.0576  -21.6635 C   0  0  0  0  0  0  0  0  0  0  0  0
  -19.3184   37.4012  -21.7775 C   0  0  0  0  0  0  0  0  0  0  0  0
  -19.9977   38.3413  -20.9935 O   0  0  0  0  0  0  0  0  0  0  0  0
  -21.1221   38.9898  -21.5514 C   0  0  0  0  0  0  0  0  0  0  0  0
  -17.2074   42.0899  -23.1645 C   0  0  0  0  0  0  0  0  0  0  0  0
  -16.8625   43.4493  -23.1750 C   0  0  0  0  0  0  0  0  0  0  0  0
  -17.1369   44.1787  -24.3174 O   0  0  0  0  0  0  0  0  0  0  0  0
  -17.7955   45.4195  -24.2873 C   0  0  0  0  0  0  0  0  0  0  0  0
  -16.2689   44.0519  -22.0896 C   0  0  0  0  0  0  0  0  0  0  0  0
  1  2  1  0
  2  3  1  0
  3  4  2  0
  4  5  1  0
  5  6  1  0
  6  7  2  0
  7  8  1  0
  8  9  2  0
  9 10  1  0
 10 11  2  0
 11 12  1  0
 12 13  1  0
 11 14  1  0
 14 15  2  0
 15 16  1  0
 16 17  1  0
  5 18  2  0
 18 19  1  0
 19 20  1  0
 20 21  1  0
 19 22  2  0
 22  3  1  0
 15  8  1  0
M  END
$$$$
