
     RDKit          3D

 38 42  0  0  0  0  0  0  0  0999 V2000
  -16.3613   18.0583  -37.7344 O   0  0  0  0  0  0  0  0  0  0  0  0
  -17.1079   18.0678  -38.7756 C   0  0  0  0  0  0  0  0  0  0  0  0
  -16.5127   17.5408  -39.9330 N   0  0  0  0  0  0  0  0  0  0  0  0
  -15.0373   17.4543  -40.0682 C   0  0  1  0  0  0  0  0  0  0  0  0
  -14.5527   18.5195  -41.0200 C   0  0  0  0  0  0  0  0  0  0  0  0
  -13.2788   18.4643  -41.3807 O   0  0  0  0  0  0  0  0  0  0  0  0
  -12.2110   18.8566  -42.0357 C   0  0  0  0  0  0  0  0  0  0  0  0
  -10.9664   18.2860  -41.8120 C   0  0  0  0  0  0  0  0  0  0  0  0
   -9.8704   18.7175  -42.5178 C   0  0  0  0  0  0  0  0  0  0  0  0
  -10.0138   19.7329  -43.4601 C   0  0  0  0  0  0  0  0  0  0  0  0
   -9.1098   20.3100  -44.2554 N   0  0  0  0  0  0  0  0  0  0  0  0
   -9.7663   21.2314  -44.9716 C   0  0  0  0  0  0  0  0  0  0  0  0
   -9.2247   21.9884  -45.8450 O   0  0  0  0  0  0  0  0  0  0  0  0
  -11.0604   21.2405  -44.6391 N   0  0  0  0  0  0  0  0  0  0  0  0
  -11.2493   20.3021  -43.6837 C   0  0  0  0  0  0  0  0  0  0  0  0
  -12.3586   19.8931  -42.9967 C   0  0  0  0  0  0  0  0  0  0  0  0
  -14.5309   17.5593  -38.6915 C   0  0  0  0  0  0  0  0  0  0  0  0
  -14.5372   18.8059  -38.1049 C   0  0  0  0  0  0  0  0  0  0  0  0
  -14.0779   18.9638  -36.8210 C   0  0  0  0  0  0  0  0  0  0  0  0
  -13.6029   17.8917  -36.0912 C   0  0  0  0  0  0  0  0  0  0  0  0
  -13.6099   16.6529  -36.7089 C   0  0  0  0  0  0  0  0  0  0  0  0
  -14.0671   16.4796  -37.9945 C   0  0  0  0  0  0  0  0  0  0  0  0
  -18.4632   18.6084  -38.6636 C   0  0  0  0  0  0  0  0  0  0  0  0
  -18.8104   19.2537  -37.4643 C   0  0  0  0  0  0  0  0  0  0  0  0
  -20.0499   19.7948  -37.2535 C   0  0  0  0  0  0  0  0  0  0  0  0
  -20.9785   19.6926  -38.2677 C   0  0  0  0  0  0  0  0  0  0  0  0
  -20.6644   19.0767  -39.4268 N   0  0  0  0  0  0  0  0  0  0  0  0
  -21.6853   18.9907  -40.4668 C   0  0  0  0  0  0  0  0  0  0  0  0
  -21.5784   20.1897  -41.3120 C   0  0  0  0  0  0  0  0  0  0  0  0
  -20.8108   20.1537  -42.4470 C   0  0  0  0  0  0  0  0  0  0  0  0
  -20.6803   21.2532  -43.2806 C   0  0  0  0  0  0  0  0  0  0  0  0
  -21.3665   22.3869  -42.9043 C   0  0  0  0  0  0  0  0  0  0  0  0
  -21.2401   23.4742  -43.7246 F   0  0  0  0  0  0  0  0  0  0  0  0
  -22.1487   22.4657  -41.7722 C   0  0  0  0  0  0  0  0  0  0  0  0
  -22.8117   23.6126  -41.4385 F   0  0  0  0  0  0  0  0  0  0  0  0
  -22.2420   21.3361  -40.9773 C   0  0  0  0  0  0  0  0  0  0  0  0
  -19.4246   18.5405  -39.6264 C   0  0  0  0  0  0  0  0  0  0  0  0
  -19.1734   17.9766  -40.7200 O   0  0  0  0  0  0  0  0  0  0  0  0
  1  2  2  0
  2  3  1  0
  3  4  1  0
  4  5  1  6
  5  6  1  0
  6  7  1  0
  7  8  2  0
  8  9  1  0
  9 10  2  0
 10 11  1  0
 11 12  1  0
 12 13  2  0
 12 14  1  0
 14 15  1  0
 15 16  2  0
  4 17  1  0
 17 18  2  0
 18 19  1  0
 19 20  2  0
 20 21  1  0
 21 22  2  0
  2 23  1  0
 23 24  2  0
 24 25  1  0
 25 26  2  0
 26 27  1  0
 27 28  1  0
 28 29  1  0
 29 30  2  0
 30 31  1  0
 31 32  2  0
 32 33  1  0
 32 34  1  0
 34 35  1  0
 34 36  2  0
 27 37  1  0
 37 38  2  0
 16  7  1  0
 22 17  1  0
 37 23  1  0
 15 10  1  0
 36 29  1  0
M  END
$$$$
