
     RDKit          3D

 13 13  0  0  0  0  0  0  0  0999 V2000
  -12.5328   14.4462  -30.3943 N   0  0  0  0  0  0  0  0  0  0  0  0
  -13.9742   14.5035  -30.4465 C   0  0  0  0  0  0  0  0  0  0  0  0
  -14.8021   13.4123  -29.5773 S   0  0  0  0  0  0  0  0  0  0  0  0
  -14.6457   15.4757  -31.2273 N   0  0  0  0  0  0  0  0  0  0  0  0
  -15.9560   15.2495  -31.6055 N   0  0  0  0  0  0  0  0  0  0  0  0
  -16.4294   15.4060  -32.7844 C   0  0  0  0  0  0  0  0  0  0  0  0
  -17.8462   15.7330  -32.9566 C   0  0  0  0  0  0  0  0  0  0  0  0
  -18.2792   16.7345  -33.7354 N   0  0  0  0  0  0  0  0  0  0  0  0
  -19.5724   17.0581  -33.9128 C   0  0  0  0  0  0  0  0  0  0  0  0
  -20.5361   16.3235  -33.2590 C   0  0  0  0  0  0  0  0  0  0  0  0
  -20.1742   15.2772  -32.4394 C   0  0  0  0  0  0  0  0  0  0  0  0
  -18.8230   14.9892  -32.2945 C   0  0  0  0  0  0  0  0  0  0  0  0
  -18.4235   13.9322  -31.4687 N   0  0  0  0  0  0  0  0  0  0  0  0
  1  2  1  0
  2  3  2  0
  2  4  1  0
  4  5  1  0
  5  6  2  0
  6  7  1  0
  7  8  2  0
  8  9  1  0
  9 10  2  0
 10 11  1  0
 11 12  2  0
 12 13  1  0
 12  7  1  0
M  END
$$$$
