
     RDKit          3D

  9  8  0  0  0  0  0  0  0  0999 V2000
  -17.7014   35.3370  -23.5646 O   0  0  0  0  0  0  0  0  0  0  0  0
  -17.7526   35.0834  -22.0909 P   0  0  0  0  0  5  0  0  0  0  0  0
  -16.3359   34.3686  -21.5428 O   0  0  0  0  0  0  0  0  0  0  0  0
  -19.0144   33.9670  -21.8015 O   0  0  0  0  0  0  0  0  0  0  0  0
  -18.1623   36.5798  -21.1650 C   0  0  0  0  0  0  0  0  0  0  0  0
  -17.6725   38.0823  -22.0231 P   0  0  0  0  0  5  0  0  0  0  0  0
  -16.2007   37.9900  -22.4170 O   0  0  0  0  0  0  0  0  0  0  0  0
  -18.6204   38.4243  -23.3574 O   0  0  0  0  0  0  0  0  0  0  0  0
  -17.8114   39.3678  -20.9009 O   0  0  0  0  0  0  0  0  0  0  0  0
  1  2  2  0
  2  3  1  0
  2  4  1  0
  2  5  1  0
  5  6  1  0
  6  7  2  0
  6  8  1  0
  6  9  1  0
M  END
$$$$
