
     RDKit          3D

 13 12  0  0  0  0  0  0  0  0999 V2000
  -19.1427   30.5526  -22.0313 N   0  0  0  0  0  0  0  0  0  0  0  0
  -19.1883   31.6520  -21.0778 C   0  0  0  0  0  0  0  0  0  0  0  0
  -19.5097   32.8944  -21.8364 C   0  0  0  0  0  0  0  0  0  0  0  0
  -18.9502   34.0914  -21.3114 N   0  0  0  0  0  0  0  0  0  0  0  0
  -18.1203   34.8555  -22.2243 C   0  0  0  0  0  0  0  0  0  0  0  0
  -18.9813   35.5499  -23.2413 C   0  0  0  0  0  0  0  0  0  0  0  0
  -19.6376   36.7252  -22.7070 N   0  0  0  0  0  0  0  0  0  0  0  0
  -19.2780   37.8626  -23.5430 C   0  0  0  0  0  0  0  0  0  0  0  0
  -17.8836   38.3736  -23.3050 C   0  0  0  0  0  0  0  0  0  0  0  0
  -17.9826   39.4248  -22.3311 N   0  0  0  0  0  0  0  0  0  0  0  0
  -17.9933   40.7681  -22.8775 C   0  0  0  0  0  0  0  0  0  0  0  0
  -17.6866   41.7864  -21.7790 C   0  0  0  0  0  0  0  0  0  0  0  0
  -17.8638   43.1146  -22.2865 N   0  0  0  0  0  0  0  0  0  0  0  0
  1  2  1  0
  2  3  1  0
  3  4  1  0
  4  5  1  0
  5  6  1  0
  6  7  1  0
  7  8  1  0
  8  9  1  0
  9 10  1  0
 10 11  1  0
 11 12  1  0
 12 13  1  0
M  END
$$$$
