
     RDKit          3D

 26 26  0  0  0  0  0  0  0  0999 V2000
  -18.7476   21.7213  -47.4182 C   0  0  0  0  0  0  0  0  0  0  0  0
  -18.3837   20.6741  -46.3255 C   0  0  0  0  0  0  0  0  0  0  0  0
  -16.9825   20.9196  -45.9072 C   0  0  0  0  0  0  0  0  0  0  0  0
  -16.3900   20.1105  -44.8665 C   0  0  0  0  0  0  0  0  0  0  0  0
  -15.0144   20.2348  -44.3952 C   0  0  1  0  0  0  0  0  0  0  0  0
  -14.4199   21.5231  -44.0868 C   0  0  0  0  0  0  0  0  0  0  0  0
  -14.2758   22.5318  -44.7015 O   0  0  0  0  0  0  0  0  0  0  0  0
  -14.8232   19.2965  -43.2622 N   0  0  0  0  0  0  0  0  0  0  0  0
  -14.3901   19.7815  -42.0149 C   0  0  0  0  0  0  0  0  0  0  0  0
  -14.2473   21.0388  -41.8558 O   0  0  0  0  0  0  0  0  0  0  0  0
  -14.0886   18.8827  -40.8630 C   0  0  2  0  0  0  0  0  0  0  0  0
  -13.2809   17.6830  -41.2907 C   0  0  0  0  0  0  0  0  0  0  0  0
  -12.8303   16.8381  -40.1515 C   0  0  0  0  0  0  0  0  0  0  0  0
  -12.1266   15.5896  -40.6378 C   0  0  0  0  0  0  0  0  0  0  0  0
  -11.9054   17.5436  -39.1986 C   0  0  0  0  0  0  0  0  0  0  0  0
  -15.3609   18.4660  -40.3151 N   0  0  0  0  0  0  0  0  0  0  0  0
  -16.3260   19.4000  -39.8565 C   0  0  0  0  0  0  0  0  0  0  0  0
  -15.9024   20.5340  -39.5148 O   0  0  0  0  0  0  0  0  0  0  0  0
  -17.6800   19.1116  -39.7754 O   0  0  0  0  0  0  0  0  0  0  0  0
  -18.0665   17.9109  -39.1318 C   0  0  0  0  0  0  0  0  0  0  0  0
  -19.5528   17.8868  -38.9829 C   0  0  0  0  0  0  0  0  0  0  0  0
  -20.1825   18.3979  -37.8751 C   0  0  0  0  0  0  0  0  0  0  0  0
  -21.5721   18.3476  -37.7919 C   0  0  0  0  0  0  0  0  0  0  0  0
  -22.3529   17.8023  -38.7815 C   0  0  0  0  0  0  0  0  0  0  0  0
  -21.7100   17.2915  -39.8903 C   0  0  0  0  0  0  0  0  0  0  0  0
  -20.3189   17.3378  -39.9817 C   0  0  0  0  0  0  0  0  0  0  0  0
  1  2  1  0
  2  3  1  0
  3  4  1  0
  5  4  1  1
  5  6  1  0
  6  7  2  0
  5  8  1  0
  8  9  1  0
  9 10  2  0
  9 11  1  0
 11 12  1  6
 12 13  1  0
 13 14  1  0
 13 15  1  0
 11 16  1  0
 16 17  1  0
 17 18  2  0
 17 19  1  0
 19 20  1  0
 20 21  1  0
 21 22  2  0
 22 23  1  0
 23 24  2  0
 24 25  1  0
 25 26  2  0
 26 21  1  0
M  END
$$$$
