
     RDKit          3D

 17 18  0  0  0  0  0  0  0  0999 V2000
  -19.0159   36.0062  -23.0586 O   0  0  0  0  0  0  0  0  0  0  0  0
  -18.3613   36.9479  -22.4663 C   0  0  0  0  0  0  0  0  0  0  0  0
  -17.9431   36.5972  -21.1571 N   0  0  0  0  0  0  0  0  0  0  0  0
  -18.1535   35.3762  -20.6116 O   0  0  0  0  0  0  0  0  0  0  0  0
  -18.1181   38.2113  -23.1433 C   0  0  0  0  0  0  0  0  0  0  0  0
  -17.8907   39.3799  -22.2537 C   0  0  0  0  0  0  0  0  0  0  0  0
  -18.8515   39.8944  -21.4093 C   0  0  0  0  0  0  0  0  0  0  0  0
  -18.6099   40.9737  -20.5829 C   0  0  0  0  0  0  0  0  0  0  0  0
  -17.3764   41.5821  -20.5770 C   0  0  0  0  0  0  0  0  0  0  0  0
  -16.3866   41.0978  -21.4084 C   0  0  0  0  0  0  0  0  0  0  0  0
  -16.6580   40.0340  -22.2087 C   0  0  0  0  0  0  0  0  0  0  0  0
  -19.0204   38.5454  -24.2624 C   0  0  0  0  0  0  0  0  0  0  0  0
  -18.6094   39.2294  -25.3792 C   0  0  0  0  0  0  0  0  0  0  0  0
  -19.4680   39.5265  -26.4171 C   0  0  0  0  0  0  0  0  0  0  0  0
  -20.7850   39.1461  -26.3758 C   0  0  0  0  0  0  0  0  0  0  0  0
  -21.2217   38.4561  -25.2606 C   0  0  0  0  0  0  0  0  0  0  0  0
  -20.3485   38.1682  -24.2330 C   0  0  0  0  0  0  0  0  0  0  0  0
  1  2  2  0
  2  3  1  0
  3  4  1  0
  2  5  1  0
  5  6  1  0
  6  7  2  0
  7  8  1  0
  8  9  2  0
  9 10  1  0
 10 11  2  0
  5 12  1  0
 12 13  2  0
 13 14  1  0
 14 15  2  0
 15 16  1  0
 16 17  2  0
 11  6  1  0
 17 12  1  0
M  END
$$$$
