
     RDKit          3D

 31 33  0  0  0  0  0  0  0  0999 V2000
  -13.8953   14.6454  -30.5151 N   0  0  0  0  0  0  0  0  0  0  0  0
  -14.9179   15.4580  -31.0991 C   0  0  0  0  0  0  0  0  0  0  0  0
  -15.2159   15.3640  -32.4159 N   0  0  0  0  0  0  0  0  0  0  0  0
  -16.1775   16.1342  -32.9551 C   0  0  0  0  0  0  0  0  0  0  0  0
  -16.6834   16.2465  -34.2147 N   0  0  0  0  0  0  0  0  0  0  0  0
  -17.6566   17.1630  -34.2644 C   0  0  0  0  0  0  0  0  0  0  0  0
  -17.8220   17.6984  -32.9879 C   0  0  0  0  0  0  0  0  0  0  0  0
  -18.7984   18.7580  -32.6584 C   0  0  0  0  0  0  0  0  0  0  0  0
  -20.2066   18.2048  -32.7513 C   0  0  0  0  0  0  0  0  0  0  0  0
  -21.2028   19.3101  -32.4834 C   0  0  0  0  0  0  0  0  0  0  0  0
  -21.0830   20.1043  -31.3678 C   0  0  0  0  0  0  0  0  0  0  0  0
  -22.0244   21.1004  -31.1613 C   0  0  0  0  0  0  0  0  0  0  0  0
  -23.0801   21.3296  -32.0304 C   0  0  0  0  0  0  0  0  0  0  0  0
  -24.0523   22.3898  -31.7693 C   0  0  0  0  0  0  0  0  0  0  0  0
  -24.4724   22.5218  -30.5860 O   0  0  0  0  0  0  0  0  0  0  0  0
  -24.5430   23.2682  -32.7613 N   0  0  0  0  0  0  0  0  0  0  0  0
  -25.5391   24.3172  -32.5013 C   0  0  1  0  0  0  0  0  0  0  0  0
  -25.2034   25.5634  -33.2335 C   0  0  0  0  0  0  0  0  0  0  0  0
  -26.1091   26.7000  -32.8570 C   0  0  0  0  0  0  0  0  0  0  0  0
  -25.7174   27.8730  -33.6744 C   0  0  0  0  0  0  0  0  0  0  0  0
  -24.4743   27.9554  -33.9652 O   0  0  0  0  0  0  0  0  0  0  0  0
  -26.5548   28.8551  -34.1321 O   0  0  0  0  0  0  0  0  0  0  0  0
  -26.8851   23.8434  -32.8322 C   0  0  0  0  0  0  0  0  0  0  0  0
  -27.7002   24.4915  -33.5233 O   0  0  0  0  0  0  0  0  0  0  0  0
  -27.3782   22.5902  -32.3861 O   0  0  0  0  0  0  0  0  0  0  0  0
  -23.1595   20.5086  -33.1347 C   0  0  0  0  0  0  0  0  0  0  0  0
  -22.2334   19.4939  -33.3806 C   0  0  0  0  0  0  0  0  0  0  0  0
  -16.8997   17.0478  -32.2022 C   0  0  0  0  0  0  0  0  0  0  0  0
  -16.5880   17.1295  -30.8784 C   0  0  0  0  0  0  0  0  0  0  0  0
  -17.2260   17.9475  -30.1602 O   0  0  0  0  0  0  0  0  0  0  0  0
  -15.6193   16.3430  -30.3731 N   0  0  0  0  0  0  0  0  0  0  0  0
  1  2  1  0
  2  3  2  0
  3  4  1  0
  4  5  1  0
  5  6  1  0
  6  7  2  0
  7  8  1  0
  8  9  1  0
  9 10  1  0
 10 11  2  0
 11 12  1  0
 12 13  2  0
 13 14  1  0
 14 15  2  0
 14 16  1  0
 16 17  1  0
 17 18  1  6
 18 19  1  0
 19 20  1  0
 20 21  2  0
 20 22  1  0
 17 23  1  0
 23 24  2  0
 23 25  1  0
 13 26  1  0
 26 27  2  0
  7 28  1  0
 28 29  1  0
 29 30  2  0
 29 31  1  0
 31  2  1  0
 28  4  2  0
 27 10  1  0
M  END
$$$$
