
     RDKit          3D

 21 23  0  0  0  0  0  0  0  0999 V2000
  -27.0942   21.2586  -26.7248 O   0  0  0  0  0  0  0  0  0  0  0  0
  -27.7301   20.2695  -27.1398 C   0  0  0  0  0  0  0  0  0  0  0  0
  -27.8172   19.1271  -26.3102 C   0  0  0  0  0  0  0  0  0  0  0  0
  -27.2019   19.1481  -25.0850 O   0  0  0  0  0  0  0  0  0  0  0  0
  -28.5139   18.0686  -26.7871 C   0  0  0  0  0  0  0  0  0  0  0  0
  -28.6868   16.8267  -26.0435 C   0  0  0  0  0  0  0  0  0  0  0  0
  -29.9703   16.3128  -25.8721 C   0  0  0  0  0  0  0  0  0  0  0  0
  -30.1354   15.1458  -25.1736 C   0  0  0  0  0  0  0  0  0  0  0  0
  -29.0710   14.4636  -24.6346 C   0  0  0  0  0  0  0  0  0  0  0  0
  -29.2783   13.2828  -23.9323 O   0  0  0  0  0  0  0  0  0  0  0  0
  -27.8248   14.9672  -24.8038 C   0  0  0  0  0  0  0  0  0  0  0  0
  -27.6350   16.1507  -25.5097 C   0  0  0  0  0  0  0  0  0  0  0  0
  -29.0899   18.1321  -28.0073 O   0  0  0  0  0  0  0  0  0  0  0  0
  -29.0346   19.1549  -28.7957 C   0  0  0  0  0  0  0  0  0  0  0  0
  -29.6598   19.1428  -30.0491 C   0  0  0  0  0  0  0  0  0  0  0  0
  -29.6058   20.2276  -30.8947 C   0  0  0  0  0  0  0  0  0  0  0  0
  -30.2356   20.1952  -32.1394 O   0  0  0  0  0  0  0  0  0  0  0  0
  -28.9074   21.3386  -30.4608 C   0  0  0  0  0  0  0  0  0  0  0  0
  -28.2908   21.3518  -29.2260 C   0  0  0  0  0  0  0  0  0  0  0  0
  -27.5924   22.4739  -28.8017 O   0  0  0  0  0  0  0  0  0  0  0  0
  -28.3409   20.2673  -28.3726 C   0  0  0  0  0  0  0  0  0  0  0  0
  1  2  2  0
  2  3  1  0
  3  4  1  0
  3  5  2  0
  5  6  1  0
  6  7  2  0
  7  8  1  0
  8  9  2  0
  9 10  1  0
  9 11  1  0
 11 12  2  0
  5 13  1  0
 13 14  1  0
 14 15  2  0
 15 16  1  0
 16 17  1  0
 16 18  2  0
 18 19  1  0
 19 20  1  0
 19 21  2  0
 21  2  1  0
 12  6  1  0
 21 14  1  0
M  END
$$$$
