
     RDKit          3D

 12 12  0  0  0  0  0  0  0  0999 V2000
  -15.5845   37.4371  -22.1919 O   0  0  0  0  0  0  0  0  0  0  0  0
  -16.6174   37.9863  -22.5333 C   0  0  0  0  0  0  0  0  0  0  0  0
  -16.5831   39.3937  -22.4750 O   0  0  0  0  0  0  0  0  0  0  0  0
  -17.8111   37.2944  -22.9712 C   0  0  0  0  0  0  0  0  0  0  0  0
  -18.4727   37.8277  -24.1058 C   0  0  0  0  0  0  0  0  0  0  0  0
  -19.6056   37.2595  -24.6109 C   0  0  0  0  0  0  0  0  0  0  0  0
  -20.0922   36.1353  -23.9735 C   0  0  0  0  0  0  0  0  0  0  0  0
  -19.4739   35.6381  -22.9142 N   0  0  0  0  0  0  0  0  0  0  0  0
  -18.3284   36.1826  -22.3743 C   0  0  0  0  0  0  0  0  0  0  0  0
  -17.7453   35.5478  -21.2110 C   0  0  0  0  0  0  0  0  0  0  0  0
  -17.3324   36.3668  -20.2877 O   0  0  0  0  0  0  0  0  0  0  0  0
  -17.5562   34.2306  -20.9209 O   0  0  0  0  0  0  0  0  0  0  0  0
  1  2  2  0
  2  3  1  0
  2  4  1  0
  4  5  2  0
  5  6  1  0
  6  7  2  0
  7  8  1  0
  8  9  2  0
  9 10  1  0
 10 11  2  0
 10 12  1  0
  9  4  1  0
M  END
$$$$
