
     RDKit          3D

 34 34  0  0  0  0  0  0  0  0999 V2000
  -14.6103   41.6746  -21.6910 N   0  0  0  0  0  0  0  0  0  0  0  0
  -15.7581   42.3659  -21.2217 C   0  0  0  0  0  0  0  0  0  0  0  0
  -16.9343   42.3633  -21.8468 N   0  0  0  0  0  0  0  0  0  0  0  0
  -18.0130   43.0083  -21.4134 C   0  0  0  0  0  0  0  0  0  0  0  0
  -17.9186   43.7252  -20.2486 C   0  0  0  0  0  0  0  0  0  0  0  0
  -19.1180   44.2655  -20.0417 N   0  0  0  0  0  0  0  0  0  0  0  0
  -19.9372   43.9137  -21.0215 C   0  0  0  0  0  0  0  0  0  0  0  0
  -19.2664   43.1250  -21.8939 N   0  0  0  0  0  0  0  0  0  0  0  0
  -19.8571   42.5727  -23.0651 C   0  0  2  0  0  0  0  0  0  0  0  0
  -20.7363   41.5365  -22.8467 O   0  0  0  0  0  0  0  0  0  0  0  0
  -20.5979   40.5919  -23.8291 C   0  0  2  0  0  0  0  0  0  0  0  0
  -19.8691   39.3615  -23.3511 C   0  0  0  0  0  0  0  0  0  0  0  0
  -20.5287   38.7395  -22.2968 O   0  0  0  0  0  0  0  0  0  0  0  0
  -19.7518   37.3758  -21.7457 P   0  0  0  0  0  5  0  0  0  0  0  0
  -20.1990   36.1188  -22.4532 O   0  0  0  0  0  0  0  0  0  0  0  0
  -20.1332   37.1960  -20.0882 O   0  0  0  0  0  1  0  0  0  0  0  0
  -18.0691   37.4783  -21.8830 O   0  0  0  0  0  0  0  0  0  0  0  0
  -17.3467   35.9716  -21.9479 P   0  0  0  0  0  5  0  0  0  0  0  0
  -17.0164   35.5341  -20.5431 O   0  0  0  0  0  0  0  0  0  0  0  0
  -15.9046   36.0065  -22.8306 O   0  0  0  0  0  0  0  0  0  0  0  0
  -18.4271   34.8812  -22.6483 O   0  0  0  0  0  0  0  0  0  0  0  0
  -18.1789   33.3542  -22.0024 P   0  0  0  0  0  5  0  0  0  0  0  0
  -16.7833   33.1872  -21.4465 O   0  0  0  0  0  0  0  0  0  0  0  0
  -18.4485   32.1913  -23.1970 O   0  0  0  0  0  1  0  0  0  0  0  0
  -19.2947   33.1204  -20.7392 O   0  0  0  0  0  0  0  0  0  0  0  0
  -19.8235   41.2413  -24.9566 C   0  0  1  0  0  0  0  0  0  0  0  0
  -20.6949   42.0695  -25.6418 O   0  0  0  0  0  0  0  0  0  0  0  0
  -18.8861   42.1300  -24.1232 C   0  0  1  0  0  0  0  0  0  0  0  0
  -18.4175   43.1676  -24.9071 O   0  0  0  0  0  0  0  0  0  0  0  0
  -16.7166   43.7421  -19.5876 C   0  0  0  0  0  0  0  0  0  0  0  0
  -16.6218   44.4020  -18.5111 O   0  0  0  0  0  0  0  0  0  0  0  0
  -15.6463   43.0647  -20.0758 N   0  0  0  0  0  0  0  0  0  0  0  0
  -18.3497   39.9550  -22.3798 Na  0  0  0  0  0 15  0  0  0  0  0  0
  -18.3497   39.9550  -22.3798 Na  0  0  0  0  0 15  0  0  0  0  0  0
  1  2  1  0
  2  3  2  0
  3  4  1  0
  4  5  2  0
  5  6  1  0
  6  7  2  0
  7  8  1  0
  9  8  1  1
  9 10  1  0
 10 11  1  0
 11 12  1  1
 12 13  1  0
 13 14  1  0
 14 15  2  0
 14 16  1  0
 14 17  1  0
 17 18  1  0
 18 19  2  0
 18 20  1  0
 18 21  1  0
 21 22  1  0
 22 23  2  0
 22 24  1  0
 22 25  1  0
 11 26  1  0
 26 27  1  6
 26 28  1  0
 28 29  1  6
  5 30  1  0
 30 31  2  0
 30 32  1  0
 32  2  1  0
  8  4  1  0
 28  9  1  0
M  CHG  4  16  -1  24  -1  33   1  34   1
M  END
$$$$
