
     RDKit          3D

 12  9  0  0  0  0  0  0  0  0999 V2000
  -28.8810   18.7207  -25.5049 C   0  0  0  0  0  0  0  0  0  0  0  0
  -29.1849   18.7772  -26.9262 N   0  0  0  0  0  0  0  0  0  0  0  0
  -30.1169   17.7534  -27.2382 C   0  0  0  0  0  0  0  0  0  0  0  0
  -29.5631   20.0985  -27.2546 C   0  0  0  0  0  0  0  0  0  0  0  0
  -29.9135   20.3585  -28.6721 C   0  0  0  0  0  0  0  0  0  0  0  0
  -30.2855   21.8365  -28.7888 C   0  0  0  0  0  0  0  0  0  0  0  0
  -30.7352   22.3060  -30.4552 S   0  0  0  0  0  0  0  0  0  0  0  0
  -29.3174   22.1769  -31.5219 C   0  0  0  0  0  0  0  0  0  0  0  0
  -28.2023   21.7934  -31.0447 N   0  0  0  0  0  0  0  0  0  0  0  0
  -29.4123   22.5001  -32.9203 N   0  0  0  0  0  0  0  0  0  0  0  0
  -29.3776   20.6016  -29.1699 Cl  0  0  0  0  0  0  0  0  0  0  0  0
  -29.3777   20.6012  -29.1691 Cl  0  0  0  0  0  0  0  0  0  0  0  0
  1  2  1  0
  2  3  1  0
  2  4  1  0
  4  5  1  0
  5  6  1  0
  6  7  1  0
  7  8  1  0
  8  9  2  0
  8 10  1  0
M  END
$$$$
