
     RDKit          3D

 58 55  0  0  0  0  0  0  0  0999 V2000
  -27.8711    0.5816  -33.0810 C   0  0  0  0  0  0  0  0  0  0  0  0
  -28.2369    2.0563  -32.9099 C   0  0  0  0  0  0  0  0  0  0  0  0
  -28.7100    2.6220  -33.8889 N   0  0  0  0  0  0  0  0  0  0  0  0
  -29.1724    3.8193  -34.2721 N   0  0  0  0  0  0  0  0  0  0  0  0
  -30.4981    4.0737  -34.7765 C   0  0  0  0  0  0  0  0  0  0  0  0
  -31.3275    3.0878  -34.7349 N   0  0  0  0  0  0  0  0  0  0  0  0
  -30.9038    5.3235  -35.3026 N   0  0  0  0  0  0  0  0  0  0  0  0
  -28.0030    2.6306  -31.6007 C   0  0  0  0  0  0  0  0  0  0  0  0
  -28.3457    3.9306  -31.2921 C   0  0  0  0  0  0  0  0  0  0  0  0
  -28.1000    4.4990  -30.0479 C   0  0  0  0  0  0  0  0  0  0  0  0
  -28.4615    5.8729  -29.8111 N   0  0  0  0  0  0  0  0  0  0  0  0
  -27.4851    6.8559  -30.1239 C   0  0  0  0  0  0  0  0  0  0  0  0
  -26.3737    6.4881  -30.5845 O   0  0  0  0  0  0  0  0  0  0  0  0
  -27.7578    8.3335  -29.9150 C   0  0  0  0  0  0  0  0  0  0  0  0
  -26.5973    9.0972  -30.4184 C   0  0  0  0  0  0  0  0  0  0  0  0
  -26.7920   10.6006  -30.2027 C   0  0  0  0  0  0  0  0  0  0  0  0
  -27.9932   11.0507  -30.9156 C   0  0  0  0  0  0  0  0  0  0  0  0
  -28.3467   12.4682  -31.0251 C   0  0  0  0  0  0  0  0  0  0  0  0
  -28.5409   13.3465  -29.8621 C   0  0  0  0  0  0  0  0  0  0  0  0
  -27.2980   13.6109  -29.1012 C   0  0  0  0  0  0  0  0  0  0  0  0
  -27.4838   14.5023  -27.8961 C   0  0  0  0  0  0  0  0  0  0  0  0
  -27.9604   15.8438  -28.2424 C   0  0  0  0  0  0  0  0  0  0  0  0
  -28.1781   16.1915  -29.4158 O   0  0  0  0  0  0  0  0  0  0  0  0
  -28.2089   16.8493  -27.2491 N   0  0  0  0  0  0  0  0  0  0  0  0
  -28.6766   18.1454  -27.5357 C   0  0  0  0  0  0  0  0  0  0  0  0
  -27.8438   19.1808  -27.8576 C   0  0  0  0  0  0  0  0  0  0  0  0
  -28.3240   20.4613  -28.1332 C   0  0  0  0  0  0  0  0  0  0  0  0
  -27.4447   21.5584  -28.4863 C   0  0  0  0  0  0  0  0  0  0  0  0
  -25.9618   21.1410  -28.5344 C   0  0  0  0  0  0  0  0  0  0  0  0
  -27.7161   22.7452  -28.7499 N   0  0  0  0  0  0  0  0  0  0  0  0
  -28.8709   23.4266  -28.8053 N   0  0  0  0  0  0  0  0  0  0  0  0
  -29.2721   24.2739  -27.7199 C   0  0  0  0  0  0  0  0  0  0  0  0
  -28.3784   24.6314  -26.8489 N   0  0  0  0  0  0  0  0  0  0  0  0
  -30.6077   24.7374  -27.5632 N   0  0  0  0  0  0  0  0  0  0  0  0
  -29.6792   20.6501  -28.0694 C   0  0  0  0  0  0  0  0  0  0  0  0
  -30.5786   19.6162  -27.7421 C   0  0  0  0  0  0  0  0  0  0  0  0
  -32.0140   19.8698  -27.6924 C   0  0  0  0  0  0  0  0  0  0  0  0
  -32.4295   21.3027  -28.0405 C   0  0  0  0  0  0  0  0  0  0  0  0
  -32.8991   19.0392  -27.4137 N   0  0  0  0  0  0  0  0  0  0  0  0
  -32.9241   17.7457  -27.0870 N   0  0  0  0  0  0  0  0  0  0  0  0
  -33.0820   17.3059  -25.7249 C   0  0  0  0  0  0  0  0  0  0  0  0
  -33.2993   18.2306  -24.8460 N   0  0  0  0  0  0  0  0  0  0  0  0
  -33.0053   15.9354  -25.3771 N   0  0  0  0  0  0  0  0  0  0  0  0
  -30.0384   18.3948  -27.4865 C   0  0  0  0  0  0  0  0  0  0  0  0
  -27.4894    3.7030  -29.1075 C   0  0  0  0  0  0  0  0  0  0  0  0
  -27.1331    2.3989  -29.3833 C   0  0  0  0  0  0  0  0  0  0  0  0
  -26.4856    1.5446  -28.3695 C   0  0  0  0  0  0  0  0  0  0  0  0
  -26.2719    2.0965  -27.0155 C   0  0  0  0  0  0  0  0  0  0  0  0
  -26.1231    0.3580  -28.6524 N   0  0  0  0  0  0  0  0  0  0  0  0
  -25.5152   -0.4296  -27.6753 N   0  0  0  0  0  0  0  0  0  0  0  0
  -26.0631   -1.7000  -27.3105 C   0  0  0  0  0  0  0  0  0  0  0  0
  -27.3278   -1.8540  -27.4079 N   0  0  0  0  0  0  0  0  0  0  0  0
  -25.1960   -2.7434  -26.8600 N   0  0  0  0  0  0  0  0  0  0  0  0
  -27.3817    1.8563  -30.6115 C   0  0  0  0  0  0  0  0  0  0  0  0
  -28.6396   11.9144  -29.0602 Cl  0  0  0  0  0  0  0  0  0  0  0  0
  -28.6396   11.9145  -29.0602 Cl  0  0  0  0  0  0  0  0  0  0  0  0
  -28.6392   11.9116  -29.0608 Cl  0  0  0  0  0  0  0  0  0  0  0  0
  -28.6386   11.9086  -29.0616 Cl  0  0  0  0  0  0  0  0  0  0  0  0
  1  2  1  0
  2  3  2  3
  3  4  1  0
  4  5  1  0
  5  6  2  0
  5  7  1  0
  2  8  1  0
  8  9  2  0
  9 10  1  0
 10 11  1  0
 11 12  1  0
 12 13  2  0
 12 14  1  0
 14 15  1  0
 15 16  1  0
 16 17  1  0
 17 18  1  0
 18 19  1  0
 19 20  1  0
 20 21  1  0
 21 22  1  0
 22 23  2  0
 22 24  1  0
 24 25  1  0
 25 26  2  0
 26 27  1  0
 27 28  1  0
 28 29  1  0
 28 30  2  3
 30 31  1  0
 31 32  1  0
 32 33  2  0
 32 34  1  0
 27 35  2  0
 35 36  1  0
 36 37  1  0
 37 38  1  0
 37 39  2  3
 39 40  1  0
 40 41  1  0
 41 42  2  0
 41 43  1  0
 36 44  2  0
 10 45  2  0
 45 46  1  0
 46 47  1  0
 47 48  1  0
 47 49  2  3
 49 50  1  0
 50 51  1  0
 51 52  2  0
 51 53  1  0
 46 54  2  0
 54  8  1  0
 44 25  1  0
M  END
$$$$
