
     RDKit          3D

 26 29  0  0  0  0  0  0  0  0999 V2000
  -20.1981   43.9077  -22.2403 C   0  0  0  0  0  0  0  0  0  0  0  0
  -19.7601   42.9708  -23.3940 C   0  0  0  0  0  0  0  0  0  0  0  0
  -20.7965   43.0903  -24.4270 C   0  0  0  0  0  0  0  0  0  0  0  0
  -20.4403   44.1254  -25.4713 C   0  0  0  0  0  0  0  0  0  0  0  0
  -19.0673   43.7728  -25.9901 C   0  0  0  0  0  0  0  0  0  0  0  0
  -18.8163   43.4667  -27.1617 O   0  0  0  0  0  0  0  0  0  0  0  0
  -18.0303   43.8242  -24.9693 C   0  0  0  0  0  0  0  0  0  0  0  0
  -18.4015   43.4375  -23.7510 C   0  0  0  0  0  0  0  0  0  0  0  0
  -17.3639   43.5271  -22.6611 C   0  0  0  0  0  0  0  0  0  0  0  0
  -17.6731   42.5290  -21.5970 C   0  0  0  0  0  0  0  0  0  0  0  0
  -18.2633   41.3318  -22.3089 C   0  0  0  0  0  0  0  0  0  0  0  0
  -19.6546   41.5610  -22.7902 C   0  0  0  0  0  0  0  0  0  0  0  0
  -19.9807   40.4729  -23.7521 C   0  0  0  0  0  0  0  0  0  0  0  0
  -21.3960   40.3441  -23.7331 O   0  0  0  0  0  0  0  0  0  0  0  0
  -19.4191   39.1437  -23.5045 C   0  0  0  0  0  0  0  0  0  0  0  0
  -18.3088   38.9321  -22.5660 C   0  0  0  0  0  0  0  0  0  0  0  0
  -17.0057   38.7187  -23.2438 C   0  0  0  0  0  0  0  0  0  0  0  0
  -16.2539   37.8684  -22.8295 O   0  0  0  0  0  0  0  0  0  0  0  0
  -18.4704   37.8186  -21.5652 C   0  0  0  0  0  0  0  0  0  0  0  0
  -18.5602   36.4804  -22.0278 C   0  0  0  0  0  0  0  0  0  0  0  0
  -19.3581   36.2336  -22.9521 O   0  0  0  0  0  0  0  0  0  0  0  0
  -17.8104   35.2836  -21.5507 C   0  0  0  0  0  0  0  0  0  0  0  0
  -16.8211   34.8749  -22.4488 O   0  0  0  0  0  0  0  0  0  0  0  0
  -19.6029   38.3573  -20.7147 C   0  0  0  0  0  0  0  0  0  0  0  0
  -19.0818   39.7852  -20.4732 C   0  0  0  0  0  0  0  0  0  0  0  0
  -18.1283   40.0721  -21.5584 C   0  0  0  0  0  0  0  0  0  0  0  0
  1  2  1  0
  2  3  1  0
  3  4  1  0
  4  5  1  0
  5  6  2  0
  5  7  1  0
  7  8  2  0
  8  9  1  0
  9 10  1  0
 10 11  1  0
 11 12  1  0
 12 13  1  0
 13 14  1  0
 13 15  1  0
 15 16  1  0
 16 17  1  0
 17 18  2  0
 16 19  1  0
 19 20  1  0
 20 21  2  0
 20 22  1  0
 22 23  1  0
 19 24  1  0
 24 25  1  0
 25 26  1  0
  8  2  1  0
 26 11  1  0
 12  2  1  0
 26 16  1  0
M  END
$$$$
