
     RDKit          3D

 28 29  0  0  0  0  0  0  0  0999 V2000
  -13.3182   44.7547  -17.4510 C   0  0  0  0  0  0  0  0  0  0  0  0
  -14.5386   44.6559  -18.3369 C   0  0  0  0  0  0  0  0  0  0  0  0
  -14.1617   43.8882  -19.5957 C   0  0  0  0  0  0  0  0  0  0  0  0
  -14.8668   42.6146  -19.6073 N   0  0  0  0  0  0  0  0  0  0  0  0
  -16.1751   42.5288  -20.1336 C   0  0  0  0  0  0  0  0  0  0  0  0
  -16.7038   43.6032  -20.5751 O   0  0  0  0  0  0  0  0  0  0  0  0
  -16.9406   41.2808  -20.1945 C   0  0  1  0  0  0  0  0  0  0  0  0
  -18.2965   41.5043  -19.6407 O   0  0  0  0  0  0  0  0  0  0  0  0
  -18.0965   41.2190  -21.0550 C   0  0  2  0  0  0  0  0  0  0  0  0
  -18.7673   39.9449  -21.4324 C   0  0  0  0  0  0  0  0  0  0  0  0
  -19.7418   39.4816  -20.7862 O   0  0  0  0  0  0  0  0  0  0  0  0
  -18.3047   39.2152  -22.5562 N   0  0  0  0  0  0  0  0  0  0  0  0
  -19.0372   38.0320  -23.0834 C   0  0  2  0  0  0  0  0  0  0  0  0
  -18.4017   36.8294  -22.5340 C   0  0  0  0  0  0  0  0  0  0  0  0
  -17.1309   36.8482  -22.3872 O   0  0  0  0  0  0  0  0  0  0  0  0
  -19.0370   35.6285  -22.1353 N   0  0  0  0  0  0  0  0  0  0  0  0
  -20.4309   35.2310  -22.1546 C   0  0  0  0  0  0  0  0  0  0  0  0
  -20.6188   34.4776  -20.8468 C   0  0  0  0  0  0  0  0  0  0  0  0
  -19.2295   34.1584  -20.3727 C   0  0  0  0  0  0  0  0  0  0  0  0
  -18.3676   34.4365  -21.5803 C   0  0  1  0  0  0  0  0  0  0  0  0
  -18.4298   33.2799  -22.4757 C   0  0  0  0  0  0  0  0  0  0  0  0
  -19.3387   33.2937  -23.3679 O   0  0  0  0  0  0  0  0  0  0  0  0
  -17.6179   32.1766  -22.4649 O   0  0  0  0  0  0  0  0  0  0  0  0
  -17.1441   31.5187  -23.6291 C   0  0  0  0  0  0  0  0  0  0  0  0
  -18.8569   38.1468  -24.5955 C   0  0  1  0  0  0  0  0  0  0  0  0
  -19.3056   36.9411  -25.3672 C   0  0  0  0  0  0  0  0  0  0  0  0
  -19.6183   39.3319  -25.1448 C   0  0  0  0  0  0  0  0  0  0  0  0
  -20.3601   38.9735  -26.3977 C   0  0  0  0  0  0  0  0  0  0  0  0
  1  2  1  0
  2  3  1  0
  3  4  1  0
  4  5  1  0
  5  6  2  0
  7  5  1  6
  7  8  1  0
  8  9  1  0
  9 10  1  1
 10 11  2  0
 10 12  1  0
 13 12  1  1
 13 14  1  0
 14 15  2  0
 14 16  1  0
 16 17  1  0
 17 18  1  0
 18 19  1  0
 19 20  1  0
 20 21  1  6
 21 22  2  0
 21 23  1  0
 23 24  1  0
 13 25  1  0
 25 26  1  6
 25 27  1  0
 27 28  1  0
  9  7  1  0
 20 16  1  0
M  END
$$$$
