
     RDKit          3D

 38 41  0  0  0  0  0  0  0  0999 V2000
   -6.4666    1.8908  -35.0270 C   0  0  0  0  0  0  0  0  0  0  0  0
   -7.9032    2.3226  -35.2312 C   0  0  0  0  0  0  0  0  0  0  0  0
   -8.8153    1.4748  -34.5326 N   0  0  0  0  0  0  0  0  0  0  0  0
   -9.0016    1.8781  -33.1803 C   0  0  0  0  0  0  0  0  0  0  0  0
   -9.8766    0.8994  -32.3840 C   0  0  0  0  0  0  0  0  0  0  0  0
  -11.0840    0.7350  -33.1471 N   0  0  0  0  0  0  0  0  0  0  0  0
  -12.3348    0.9962  -32.5609 C   0  0  0  0  0  0  0  0  0  0  0  0
  -12.4486    1.7870  -31.4111 C   0  0  0  0  0  0  0  0  0  0  0  0
  -13.6555    2.0723  -30.8219 C   0  0  0  0  0  0  0  0  0  0  0  0
  -14.8402    1.5712  -31.3632 C   0  0  0  0  0  0  0  0  0  0  0  0
  -16.0834    1.8509  -30.7367 N   0  0  0  0  0  0  0  0  0  0  0  0
  -17.2773    1.5962  -31.4492 C   0  0  0  0  0  0  0  0  0  0  0  0
  -17.1780    1.3467  -32.8063 C   0  0  0  0  0  0  0  0  0  0  0  0
  -18.2841    1.0896  -33.6015 C   0  0  0  0  0  0  0  0  0  0  0  0
  -18.0979    0.8674  -34.9749 N   0  0  0  0  0  0  0  0  0  0  0  0
  -18.3590    1.9981  -35.8966 C   0  0  0  0  0  0  0  0  0  0  0  0
  -17.6818   -0.3294  -35.5952 C   0  0  0  0  0  0  0  0  0  0  0  0
  -17.2859   -0.2922  -36.8153 O   0  0  0  0  0  0  0  0  0  0  0  0
  -17.6577   -1.6040  -34.9909 N   0  0  0  0  0  0  0  0  0  0  0  0
  -16.7505   -2.6280  -35.4610 C   0  0  0  0  0  0  0  0  0  0  0  0
  -15.5659   -2.7805  -34.7674 C   0  0  0  0  0  0  0  0  0  0  0  0
  -15.2135   -1.7443  -33.3937 Cl  0  0  0  0  0  0  0  0  0  0  0  0
  -14.6679   -3.7557  -35.1687 C   0  0  0  0  0  0  0  0  0  0  0  0
  -13.4986   -3.8827  -34.4604 O   0  0  0  0  0  0  0  0  0  0  0  0
  -12.2935   -4.4308  -34.9368 C   0  0  0  0  0  0  0  0  0  0  0  0
  -14.9924   -4.5415  -36.2511 C   0  0  0  0  0  0  0  0  0  0  0  0
  -16.1704   -4.3992  -36.9505 C   0  0  0  0  0  0  0  0  0  0  0  0
  -16.5263   -5.1744  -38.0413 O   0  0  0  0  0  0  0  0  0  0  0  0
  -16.3392   -6.5485  -38.1714 C   0  0  0  0  0  0  0  0  0  0  0  0
  -17.0605   -3.4087  -36.5276 C   0  0  0  0  0  0  0  0  0  0  0  0
  -18.5733   -3.1576  -37.3539 Cl  0  0  0  0  0  0  0  0  0  0  0  0
  -19.4614    1.0946  -32.9797 N   0  0  0  0  0  0  0  0  0  0  0  0
  -19.5823    1.3316  -31.6744 C   0  0  0  0  0  0  0  0  0  0  0  0
  -18.5007    1.5830  -30.9020 N   0  0  0  0  0  0  0  0  0  0  0  0
  -14.7619    0.7982  -32.4835 C   0  0  0  0  0  0  0  0  0  0  0  0
  -13.5405    0.5327  -33.0458 C   0  0  0  0  0  0  0  0  0  0  0  0
  -10.9465    0.2820  -34.5070 C   0  0  0  0  0  0  0  0  0  0  0  0
  -10.0288    1.2143  -35.2663 C   0  0  0  0  0  0  0  0  0  0  0  0
  1  2  1  0
  2  3  1  0
  3  4  1  0
  4  5  1  0
  5  6  1  0
  6  7  1  0
  7  8  2  0
  8  9  1  0
  9 10  2  0
 10 11  1  0
 11 12  1  0
 12 13  2  0
 13 14  1  0
 14 15  1  0
 15 16  1  0
 15 17  1  0
 17 18  2  0
 17 19  1  0
 19 20  1  0
 20 21  2  0
 21 22  1  0
 21 23  1  0
 23 24  1  0
 24 25  1  0
 23 26  2  0
 26 27  1  0
 27 28  1  0
 28 29  1  0
 27 30  2  0
 30 31  1  0
 14 32  2  0
 32 33  1  0
 33 34  2  0
 10 35  1  0
 35 36  2  0
  6 37  1  0
 37 38  1  0
 38  3  1  0
 36  7  1  0
 34 12  1  0
 30 20  1  0
M  END
$$$$
