
     RDKit          3D

 20 21  0  0  0  0  0  0  0  0999 V2000
  -18.6754   46.9648  -19.4420 C   0  0  0  0  0  0  0  0  0  0  0  0
  -18.5322   45.5805  -19.1871 O   0  0  0  0  0  0  0  0  0  0  0  0
  -18.4793   44.6937  -20.2385 C   0  0  0  0  0  0  0  0  0  0  0  0
  -18.3731   45.1496  -21.5454 C   0  0  0  0  0  0  0  0  0  0  0  0
  -18.3202   44.2605  -22.5992 C   0  0  0  0  0  0  0  0  0  0  0  0
  -18.3742   42.9281  -22.3306 C   0  0  0  0  0  0  0  0  0  0  0  0
  -18.4801   42.4165  -21.0474 C   0  0  0  0  0  0  0  0  0  0  0  0
  -18.5314   41.0098  -20.8432 N   0  0  0  0  0  0  0  0  0  0  0  0
  -18.6852   40.0644  -21.8816 C   0  0  0  0  0  0  0  0  0  0  0  0
  -18.2929   40.4148  -23.0401 O   0  0  0  0  0  0  0  0  0  0  0  0
  -19.2576   38.7278  -21.7165 C   0  0  0  0  0  0  0  0  0  0  0  0
  -19.1308   37.7546  -22.5769 C   0  0  0  0  0  0  0  0  0  0  0  0
  -18.5434   36.4519  -22.3480 C   0  0  0  0  0  0  0  0  0  0  0  0
  -17.1819   36.2325  -22.4677 C   0  0  0  0  0  0  0  0  0  0  0  0
  -16.5949   35.0115  -22.2578 C   0  0  0  0  0  0  0  0  0  0  0  0
  -17.3514   33.9111  -21.9075 C   0  0  0  0  0  0  0  0  0  0  0  0
  -16.6289   32.3416  -21.6336 Cl  0  0  0  0  0  0  0  0  0  0  0  0
  -18.7077   34.1103  -21.7838 C   0  0  0  0  0  0  0  0  0  0  0  0
  -19.3044   35.3606  -21.9993 C   0  0  0  0  0  0  0  0  0  0  0  0
  -18.5306   43.3338  -20.0172 C   0  0  0  0  0  0  0  0  0  0  0  0
  1  2  1  0
  2  3  1  0
  3  4  2  0
  4  5  1  0
  5  6  2  0
  6  7  1  0
  7  8  1  0
  8  9  1  0
  9 10  2  0
  9 11  1  0
 11 12  2  0
 12 13  1  0
 13 14  2  0
 14 15  1  0
 15 16  2  0
 16 17  1  0
 16 18  1  0
 18 19  2  0
  7 20  2  0
 20  3  1  0
 19 13  1  0
M  END
$$$$
