
     RDKit          3D

 36 39  0  0  0  0  0  0  0  0999 V2000
  -15.7681   -1.1933  -37.0641 C   0  0  0  0  0  0  0  0  0  0  0  0
  -15.5903    0.1420  -36.7979 O   0  0  0  0  0  0  0  0  0  0  0  0
  -14.9287    0.7351  -35.7298 C   0  0  0  0  0  0  0  0  0  0  0  0
  -14.0091    0.0514  -34.9706 C   0  0  0  0  0  0  0  0  0  0  0  0
  -13.3406    0.6496  -33.8960 C   0  0  0  0  0  0  0  0  0  0  0  0
  -12.3798   -0.1040  -33.1379 N   0  0  0  0  0  0  0  0  0  0  0  0
  -12.7186   -1.4513  -32.8384 C   0  0  0  0  0  0  0  0  0  0  0  0
  -11.9924   -2.4510  -33.4510 C   0  0  0  0  0  0  0  0  0  0  0  0
  -10.9415   -2.0904  -34.3350 C   0  0  0  0  0  0  0  0  0  0  0  0
  -10.0476   -1.7953  -35.0616 N   0  0  0  0  0  0  0  0  0  0  0  0
  -12.3370   -3.7489  -33.1568 C   0  0  0  0  0  0  0  0  0  0  0  0
  -13.3435   -4.0197  -32.3032 N   0  0  0  0  0  0  0  0  0  0  0  0
  -14.0412   -3.0357  -31.7130 C   0  0  0  0  0  0  0  0  0  0  0  0
  -15.0773   -3.3055  -30.8215 C   0  0  0  0  0  0  0  0  0  0  0  0
  -15.7852   -2.2935  -30.2100 C   0  0  0  0  0  0  0  0  0  0  0  0
  -16.8041   -2.6171  -29.3334 O   0  0  0  0  0  0  0  0  0  0  0  0
  -17.2724   -3.9369  -29.2801 C   0  0  0  0  0  0  0  0  0  0  0  0
  -18.4111   -4.1402  -28.3135 C   0  0  0  0  0  0  0  0  0  0  0  0
  -17.8550   -4.8505  -27.1090 C   0  0  0  0  0  0  0  0  0  0  0  0
  -18.8832   -5.0484  -26.1336 N   0  0  0  0  0  0  0  0  0  0  0  0
  -19.7558   -6.1487  -26.3774 C   0  0  0  0  0  0  0  0  0  0  0  0
  -19.2724   -7.4150  -25.6928 C   0  0  0  0  0  0  0  0  0  0  0  0
  -17.8339   -7.3612  -25.4294 N   0  0  0  0  0  0  0  0  0  0  0  0
  -17.4645   -8.6413  -24.8542 C   0  0  0  0  0  0  0  0  0  0  0  0
  -17.4730   -6.2666  -24.5476 C   0  0  0  0  0  0  0  0  0  0  0  0
  -18.3509   -5.0537  -24.7764 C   0  0  0  0  0  0  0  0  0  0  0  0
  -15.5063   -0.9598  -30.4487 C   0  0  0  0  0  0  0  0  0  0  0  0
  -16.2259    0.0514  -29.8264 O   0  0  0  0  0  0  0  0  0  0  0  0
  -16.6080    1.1535  -30.6320 C   0  0  0  0  0  0  0  0  0  0  0  0
  -14.4645   -0.6929  -31.3461 C   0  0  0  0  0  0  0  0  0  0  0  0
  -13.7519   -1.6912  -31.9607 C   0  0  0  0  0  0  0  0  0  0  0  0
  -13.6400    1.9646  -33.6205 C   0  0  0  0  0  0  0  0  0  0  0  0
  -12.7962    2.7074  -32.2694 Cl  0  0  0  0  0  0  0  0  0  0  0  0
  -14.5573    2.6815  -34.3613 C   0  0  0  0  0  0  0  0  0  0  0  0
  -15.2088    2.0534  -35.4310 C   0  0  0  0  0  0  0  0  0  0  0  0
  -16.3674    2.9870  -36.3518 Cl  0  0  0  0  0  0  0  0  0  0  0  0
  1  2  1  0
  2  3  1  0
  3  4  2  0
  4  5  1  0
  5  6  1  0
  6  7  1  0
  7  8  2  0
  8  9  1  0
  9 10  3  0
  8 11  1  0
 11 12  2  0
 12 13  1  0
 13 14  2  0
 14 15  1  0
 15 16  1  0
 16 17  1  0
 17 18  1  0
 18 19  1  0
 19 20  1  0
 20 21  1  0
 21 22  1  0
 22 23  1  0
 23 24  1  0
 23 25  1  0
 25 26  1  0
 15 27  2  0
 27 28  1  0
 28 29  1  0
 27 30  1  0
 30 31  2  0
  5 32  2  0
 32 33  1  0
 32 34  1  0
 34 35  2  0
 35 36  1  0
 35  3  1  0
 31  7  1  0
 31 13  1  0
 26 20  1  0
M  END
$$$$
