
     RDKit          3D

 35 38  0  0  0  0  0  0  0  0999 V2000
  -12.5772   -4.3820  -35.8195 C   0  0  0  0  0  0  0  0  0  0  0  0
  -11.8938   -3.3587  -34.9400 C   0  0  0  0  0  0  0  0  0  0  0  0
  -12.9142   -2.5256  -34.2602 C   0  0  0  0  0  0  0  0  0  0  0  0
  -14.1292   -2.7679  -34.4319 O   0  0  0  0  0  0  0  0  0  0  0  0
  -12.5189   -1.4566  -33.4172 N   0  0  0  0  0  0  0  0  0  0  0  0
  -13.4441   -0.6878  -32.6934 C   0  0  0  0  0  0  0  0  0  0  0  0
  -13.3646   -0.6168  -31.3258 C   0  0  0  0  0  0  0  0  0  0  0  0
  -14.2870    0.1581  -30.6068 C   0  0  0  0  0  0  0  0  0  0  0  0
  -15.2679    0.8435  -31.2702 C   0  0  0  0  0  0  0  0  0  0  0  0
  -15.3573    0.7777  -32.6609 C   0  0  0  0  0  0  0  0  0  0  0  0
  -16.3387    1.4661  -33.3307 O   0  0  0  0  0  0  0  0  0  0  0  0
  -17.6648    1.1361  -33.3529 C   0  0  0  0  0  0  0  0  0  0  0  0
  -18.0780   -0.0868  -32.9522 N   0  0  0  0  0  0  0  0  0  0  0  0
  -19.3885   -0.4074  -32.9782 C   0  0  0  0  0  0  0  0  0  0  0  0
  -19.7226   -1.7239  -32.5264 N   0  0  0  0  0  0  0  0  0  0  0  0
  -18.6773   -2.4678  -31.8844 C   0  0  0  0  0  0  0  0  0  0  0  0
  -17.4187   -1.9514  -31.7044 C   0  0  0  0  0  0  0  0  0  0  0  0
  -16.4339   -2.6934  -31.0615 C   0  0  0  0  0  0  0  0  0  0  0  0
  -16.6528   -3.9546  -30.5791 C   0  0  0  0  0  0  0  0  0  0  0  0
  -15.6913   -4.7422  -29.8881 N   0  0  0  0  0  0  0  0  0  0  0  0
  -14.3012   -4.3446  -29.8203 C   0  0  0  0  0  0  0  0  0  0  0  0
  -13.6208   -4.6914  -28.5448 C   0  0  0  0  0  0  0  0  0  0  0  0
  -14.0631   -5.8940  -27.9146 N   0  0  0  0  0  0  0  0  0  0  0  0
  -13.5591   -5.9276  -26.5588 C   0  0  0  0  0  0  0  0  0  0  0  0
  -15.5112   -5.9879  -27.8495 C   0  0  0  0  0  0  0  0  0  0  0  0
  -16.0832   -5.9809  -29.2688 C   0  0  0  0  0  0  0  0  0  0  0  0
  -17.9451   -4.4618  -30.7754 C   0  0  0  0  0  0  0  0  0  0  0  0
  -18.9263   -3.7397  -31.4085 C   0  0  0  0  0  0  0  0  0  0  0  0
  -20.1854   -4.3033  -31.5692 O   0  0  0  0  0  0  0  0  0  0  0  0
  -20.5037   -5.2076  -32.5843 C   0  0  0  0  0  0  0  0  0  0  0  0
  -20.3214    0.4619  -33.3964 N   0  0  0  0  0  0  0  0  0  0  0  0
  -19.9643    1.6987  -33.8078 C   0  0  0  0  0  0  0  0  0  0  0  0
  -18.6042    2.0227  -33.7776 C   0  0  0  0  0  0  0  0  0  0  0  0
  -18.2083    3.6405  -34.3183 Cl  0  0  0  0  0  0  0  0  0  0  0  0
  -14.4365    0.0090  -33.3299 C   0  0  0  0  0  0  0  0  0  0  0  0
  1  2  1  0
  2  3  1  0
  3  4  2  0
  3  5  1  0
  5  6  1  0
  6  7  2  0
  7  8  1  0
  8  9  2  0
  9 10  1  0
 10 11  1  0
 11 12  1  0
 12 13  2  0
 13 14  1  0
 14 15  1  0
 15 16  1  0
 16 17  2  0
 17 18  1  0
 18 19  2  0
 19 20  1  0
 20 21  1  0
 21 22  1  0
 22 23  1  0
 23 24  1  0
 23 25  1  0
 25 26  1  0
 19 27  1  0
 27 28  2  0
 28 29  1  0
 29 30  1  0
 14 31  2  0
 31 32  1  0
 32 33  2  0
 33 34  1  0
 10 35  2  0
 35  6  1  0
 33 12  1  0
 28 16  1  0
 26 20  1  0
M  END
$$$$
