
     RDKit          3D

 12 13  0  0  0  0  0  0  0  0999 V2000
  -19.2010   34.5432  -22.7673 O   0  0  0  0  0  0  0  0  0  0  0  0
  -18.1792   35.3674  -22.1079 B   0  0  0  0  0  0  0  0  0  0  0  0
  -16.8830   34.6920  -21.8825 O   0  0  0  0  0  0  0  0  0  0  0  0
  -18.2649   36.8974  -22.3414 C   0  0  0  0  0  0  0  0  0  0  0  0
  -19.3335   37.7027  -22.6510 C   0  0  0  0  0  0  0  0  0  0  0  0
  -19.0746   39.0211  -22.7915 C   0  0  0  0  0  0  0  0  0  0  0  0
  -20.0470   40.0081  -23.1094 C   0  0  0  0  0  0  0  0  0  0  0  0
  -19.6637   41.3242  -23.2270 C   0  0  0  0  0  0  0  0  0  0  0  0
  -18.3854   41.7677  -23.0571 C   0  0  0  0  0  0  0  0  0  0  0  0
  -17.4394   40.8166  -22.7491 C   0  0  0  0  0  0  0  0  0  0  0  0
  -17.8381   39.4861  -22.6323 C   0  0  0  0  0  0  0  0  0  0  0  0
  -16.8534   38.0489  -22.2480 S   0  0  0  0  0  0  0  0  0  0  0  0
  1  2  1  0
  2  3  1  0
  2  4  1  0
  4  5  2  0
  5  6  1  0
  6  7  2  0
  7  8  1  0
  8  9  2  0
  9 10  1  0
 10 11  2  0
 11 12  1  0
 12  4  1  0
 11  6  1  0
M  END
$$$$
