
     RDKit          3D

 18 19  0  0  0  0  0  0  0  0999 V2000
  -15.5023   17.5077  -36.0133 N   0  0  0  0  0  0  0  0  0  0  0  0
  -16.6477   17.6552  -35.1725 C   0  0  0  0  0  0  0  0  0  0  0  0
  -17.4562   18.5323  -35.4822 O   0  0  0  0  0  0  0  0  0  0  0  0
  -16.8014   16.7942  -34.0284 C   0  0  0  0  0  0  0  0  0  0  0  0
  -15.6188   16.3148  -33.4250 C   0  0  0  0  0  0  0  0  0  0  0  0
  -15.6174   15.4682  -32.3467 C   0  0  0  0  0  0  0  0  0  0  0  0
  -14.4279   14.9974  -31.7333 N   0  0  0  0  0  0  0  0  0  0  0  0
  -13.4410   14.7484  -30.7211 C   0  0  0  0  0  0  0  0  0  0  0  0
  -13.1463   14.2096  -32.0448 C   0  0  0  0  0  0  0  0  0  0  0  0
  -16.8488   15.0949  -31.8649 C   0  0  0  0  0  0  0  0  0  0  0  0
  -16.9357   14.2054  -30.7411 N   0  0  0  0  0  4  0  0  0  0  0  0
  -17.9339   14.2219  -30.0041 O   0  0  0  0  0  0  0  0  0  0  0  0
  -15.8675   13.3641  -30.5358 O   0  0  0  0  0  1  0  0  0  0  0  0
  -18.0133   15.5491  -32.4343 C   0  0  0  0  0  0  0  0  0  0  0  0
  -18.0203   16.4205  -33.5418 C   0  0  0  0  0  0  0  0  0  0  0  0
  -19.2885   16.8229  -34.0430 N   0  0  0  0  0  4  0  0  0  0  0  0
  -20.2134   15.9292  -34.0143 O   0  0  0  0  0  0  0  0  0  0  0  0
  -19.5943   18.0474  -34.5469 O   0  0  0  0  0  1  0  0  0  0  0  0
  1  2  1  0
  2  3  2  0
  2  4  1  0
  4  5  2  0
  5  6  1  0
  6  7  1  0
  7  8  1  0
  8  9  1  0
  6 10  2  0
 10 11  1  0
 11 12  2  0
 11 13  1  0
 10 14  1  0
 14 15  2  0
 15 16  1  0
 16 17  2  0
 16 18  1  0
 15  4  1  0
  9  7  1  0
M  CHG  4  11   1  13  -1  16   1  18  -1
M  END
$$$$
