
     RDKit          3D

 28 32  0  0  0  0  0  0  0  0999 V2000
    4.2311   12.8129  -34.2422 C   0  0  0  0  0  0  0  0  0  0  0  0
    3.1881   11.8463  -34.5996 C   0  0  0  0  0  0  0  0  0  0  0  0
    2.1736   11.4752  -33.7266 C   0  0  0  0  0  0  0  0  0  0  0  0
    1.2284   10.5692  -34.1158 C   0  0  0  0  0  0  0  0  0  0  0  0
    1.2891   10.0284  -35.3772 C   0  0  0  0  0  0  0  0  0  0  0  0
    2.3026   10.3932  -36.2622 C   0  0  0  0  0  0  0  0  0  0  0  0
    2.3944    9.8378  -37.6076 C   0  0  0  0  0  0  0  0  0  0  0  0
    3.5263    9.7035  -38.3513 N   0  0  0  0  0  0  0  0  0  0  0  0
    3.2407    9.1627  -39.5199 N   0  0  0  0  0  0  0  0  0  0  0  0
    1.9379    8.9207  -39.5999 C   0  0  0  0  0  0  0  0  0  0  0  0
    1.3815    9.3378  -38.4056 C   0  0  0  0  0  0  0  0  0  0  0  0
   -0.0062    9.3024  -37.9727 C   0  0  0  0  0  0  0  0  0  0  0  0
   -0.7844   10.4336  -37.8652 C   0  0  0  0  0  0  0  0  0  0  0  0
   -2.0853   10.2870  -37.4461 C   0  0  0  0  0  0  0  0  0  0  0  0
   -2.6364    9.1036  -37.1368 N   0  0  0  0  0  0  0  0  0  0  0  0
   -1.8880    7.9778  -37.2357 C   0  0  0  0  0  0  0  0  0  0  0  0
   -2.4204    6.7442  -36.9256 C   0  0  0  0  0  0  0  0  0  0  0  0
   -1.6748    5.5868  -37.0191 C   0  0  0  0  0  0  0  0  0  0  0  0
   -0.3625    5.6594  -37.4330 C   0  0  0  0  0  0  0  0  0  0  0  0
    0.4771    4.4729  -37.5517 C   0  0  0  0  0  0  0  0  0  0  0  0
    1.4152    4.4422  -38.6199 N   0  0  0  0  0  0  0  0  0  0  0  0
    0.4152    3.5063  -36.7819 O   0  0  0  0  0  0  0  0  0  0  0  0
    0.1544    6.9128  -37.7406 C   0  0  0  0  0  0  0  0  0  0  0  0
   -0.5708    8.0818  -37.6548 C   0  0  0  0  0  0  0  0  0  0  0  0
    1.6118    8.3033  -40.9337 C   0  0  0  0  0  0  0  0  0  0  0  0
    2.9575    7.7947  -41.3942 C   0  0  0  0  0  0  0  0  0  0  0  0
    3.9215    8.7558  -40.7370 C   0  0  0  0  0  0  0  0  0  0  0  0
    3.1915   11.2867  -35.8067 N   0  0  0  0  0  0  0  0  0  0  0  0
  1  2  1  0
  2  3  2  0
  3  4  1  0
  4  5  2  0
  5  6  1  0
  6  7  1  0
  7  8  2  0
  8  9  1  0
  9 10  1  0
 10 11  2  0
 11 12  1  0
 12 13  2  0
 13 14  1  0
 14 15  2  0
 15 16  1  0
 16 17  2  0
 17 18  1  0
 18 19  2  0
 19 20  1  0
 20 21  1  0
 20 22  2  0
 19 23  1  0
 23 24  2  0
 10 25  1  0
 25 26  1  0
 26 27  1  0
  6 28  2  0
 28  2  1  0
 11  7  1  0
 24 12  1  0
 27  9  1  0
 24 16  1  0
M  END
$$$$
