
     RDKit          3D

 22 24  0  0  0  0  0  0  0  0999 V2000
  -32.0524   16.0332  -27.5074 C   0  0  0  0  0  0  0  0  0  0  0  0
  -31.7978   17.3751  -26.9065 C   0  0  0  0  0  0  0  0  0  0  0  0
  -30.7599   18.1865  -27.4724 N   0  0  0  0  0  0  0  0  0  0  0  0
  -30.7622   19.0586  -28.4723 C   0  0  0  0  0  0  0  0  0  0  0  0
  -29.5782   19.5787  -28.7691 N   0  0  0  0  0  0  0  0  0  0  0  0
  -28.7153   19.0111  -27.9193 C   0  0  0  0  0  0  0  0  0  0  0  0
  -27.3166   19.2972  -27.8397 C   0  0  0  0  0  0  0  0  0  0  0  0
  -26.8445   20.2101  -28.7927 N   0  0  0  0  0  0  0  0  0  0  0  0
  -25.6582   20.5988  -29.1983 C   0  0  0  0  0  0  0  0  0  0  0  0
  -24.9628   20.8693  -30.3723 C   0  0  0  0  0  0  0  0  0  0  0  0
  -23.8334   21.0781  -30.7600 C   0  0  0  0  0  0  0  0  0  0  0  0
  -23.3473   21.3407  -32.0116 F   0  0  0  0  0  0  0  0  0  0  0  0
  -22.7809   21.0439  -29.7027 C   0  0  0  0  0  0  0  0  0  0  0  0
  -23.2767   20.7700  -28.4472 C   0  0  0  0  0  0  0  0  0  0  0  0
  -22.3266   20.7175  -27.4204 F   0  0  0  0  0  0  0  0  0  0  0  0
  -24.5412   20.5483  -28.1058 C   0  0  0  0  0  0  0  0  0  0  0  0
  -26.7740   18.5606  -26.8604 N   0  0  0  0  0  0  0  0  0  0  0  0
  -27.3550   17.7438  -26.1147 C   0  0  0  0  0  0  0  0  0  0  0  0
  -26.6153   16.7718  -25.2045 C   0  0  0  0  0  0  0  0  0  0  0  0
  -26.0723   16.0336  -24.5050 N   0  0  0  0  0  0  0  0  0  0  0  0
  -28.7387   17.4308  -26.1503 N   0  0  0  0  0  0  0  0  0  0  0  0
  -29.3798   18.1450  -27.1268 C   0  0  0  0  0  0  0  0  0  0  0  0
  1  2  1  0
  2  3  1  0
  3  4  1  0
  4  5  2  0
  5  6  1  0
  6  7  2  0
  7  8  1  0
  8  9  1  0
  9 10  2  0
 10 11  1  0
 11 12  1  0
 11 13  2  0
 13 14  1  0
 14 15  1  0
 14 16  2  0
  7 17  1  0
 17 18  2  0
 18 19  1  0
 19 20  3  0
 18 21  1  0
 21 22  2  0
 22  3  1  0
 22  6  1  0
 16  9  1  0
M  END
$$$$
