
     RDKit          3D

 35 38  0  0  0  0  0  0  0  0999 V2000
  -19.9533   -3.0256  -26.6829 C   0  0  0  0  0  0  0  0  0  0  0  0
  -18.6375   -3.5148  -27.1715 C   0  0  0  0  0  0  0  0  0  0  0  0
  -18.0386   -3.0075  -28.3251 C   0  0  0  0  0  0  0  0  0  0  0  0
  -16.8305   -3.4732  -28.7714 C   0  0  0  0  0  0  0  0  0  0  0  0
  -16.2213   -2.9373  -29.9638 C   0  0  0  0  0  0  0  0  0  0  0  0
  -17.0199   -2.5340  -30.8750 O   0  0  0  0  0  0  0  0  0  0  0  0
  -14.8240   -2.8301  -30.1885 N   0  0  0  0  0  0  0  0  0  0  0  0
  -14.2544   -1.8140  -31.0432 C   0  0  0  0  0  0  0  0  0  0  0  0
  -14.0610   -0.5290  -30.7205 N   0  0  0  0  0  0  0  0  0  0  0  0
  -13.5046    0.1336  -31.7492 C   0  0  0  0  0  0  0  0  0  0  0  0
  -13.1145    1.4417  -31.9303 C   0  0  0  0  0  0  0  0  0  0  0  0
  -12.5663    1.8339  -33.1110 C   0  0  0  0  0  0  0  0  0  0  0  0
  -12.3913    0.9180  -34.1567 C   0  0  0  0  0  0  0  0  0  0  0  0
  -12.7780   -0.3941  -33.9883 C   0  0  0  0  0  0  0  0  0  0  0  0
  -12.5421   -1.4771  -35.3303 Cl  0  0  0  0  0  0  0  0  0  0  0  0
  -13.3329   -0.7885  -32.7900 C   0  0  0  0  0  0  0  0  0  0  0  0
  -13.8093   -1.9624  -32.2986 N   0  0  0  0  0  0  0  0  0  0  0  0
  -13.7973   -3.1857  -33.0641 C   0  0  2  0  0  0  0  0  0  0  0  0
  -12.9553   -4.1984  -32.3620 C   0  0  0  0  0  0  0  0  0  0  0  0
  -12.3447   -5.2094  -33.3124 C   0  0  0  0  0  0  0  0  0  0  0  0
  -13.4196   -5.9792  -33.9870 C   0  0  0  0  0  0  0  0  0  0  0  0
  -14.0372   -5.3469  -35.1914 C   0  0  0  0  0  0  0  0  0  0  0  0
  -13.7227   -3.9653  -35.3831 N   0  0  0  0  0  0  0  0  0  0  0  0
  -13.9791   -3.5023  -36.6758 C   0  0  0  0  0  0  0  0  0  0  0  0
  -14.1620   -2.2368  -36.8186 O   0  0  0  0  0  0  0  0  0  0  0  0
  -14.0462   -4.3743  -37.8204 C   0  0  0  0  0  0  0  0  0  0  0  0
  -13.6347   -3.9173  -39.0166 C   0  0  0  0  0  0  0  0  0  0  0  0
  -12.1805   -3.7340  -39.2063 C   0  0  0  0  0  0  0  0  0  0  0  0
  -11.8564   -3.0562  -40.4533 N   0  0  0  0  0  0  0  0  0  0  0  0
  -12.4007   -3.7805  -41.5948 C   0  0  0  0  0  0  0  0  0  0  0  0
  -10.4205   -2.8891  -40.6229 C   0  0  0  0  0  0  0  0  0  0  0  0
  -13.2005   -2.9516  -34.4649 C   0  0  0  0  0  0  0  0  0  0  0  0
  -16.2072   -4.4693  -28.0492 C   0  0  0  0  0  0  0  0  0  0  0  0
  -16.8131   -4.9745  -26.8931 C   0  0  0  0  0  0  0  0  0  0  0  0
  -17.9948   -4.4890  -26.4924 N   0  0  0  0  0  0  0  0  0  0  0  0
  1  2  1  0
  2  3  2  0
  3  4  1  0
  4  5  1  0
  5  6  2  0
  5  7  1  0
  7  8  1  0
  8  9  2  0
  9 10  1  0
 10 11  2  0
 11 12  1  0
 12 13  2  0
 13 14  1  0
 14 15  1  0
 14 16  2  0
 16 17  1  0
 18 17  1  1
 18 19  1  0
 19 20  1  0
 20 21  1  0
 21 22  1  0
 22 23  1  0
 23 24  1  0
 24 25  2  0
 24 26  1  0
 26 27  2  0
 27 28  1  0
 28 29  1  0
 29 30  1  0
 29 31  1  0
 23 32  1  0
  4 33  2  0
 33 34  1  0
 34 35  2  0
 35  2  1  0
 17  8  1  0
 32 18  1  0
 16 10  1  0
M  END
$$$$
