
     RDKit          3D

 20 23  0  0  0  0  0  0  0  0999 V2000
  -18.4611   35.9381  -24.5348 C   0  0  0  0  0  0  0  0  0  0  0  0
  -19.7986   35.7676  -24.3208 C   0  0  0  0  0  0  0  0  0  0  0  0
  -20.3759   36.5440  -23.2975 C   0  0  0  0  0  0  0  0  0  0  0  0
  -19.5645   37.4047  -22.5981 C   0  0  0  0  0  0  0  0  0  0  0  0
  -19.8463   38.5727  -21.2346 S   0  0  0  0  0  0  0  0  0  0  0  0
  -18.0907   39.1462  -21.1327 C   0  0  0  0  0  0  0  0  0  0  0  0
  -17.5164   40.3547  -19.9814 S   0  0  0  0  0  0  0  0  0  0  0  0
  -18.8703   41.9918  -19.9566 S   0  0  0  0  0  0  0  0  0  0  0  0
  -18.7895   42.7557  -21.5612 C   0  0  0  0  0  0  0  0  0  0  0  0
  -19.4879   43.0524  -22.4566 N   0  0  0  0  0  0  0  0  0  0  0  0
  -19.2139   43.6297  -23.5899 C   0  0  0  0  0  0  0  0  0  0  0  0
  -20.0929   43.9692  -24.6441 C   0  0  0  0  0  0  0  0  0  0  0  0
  -19.5813   44.5737  -25.7472 C   0  0  0  0  0  0  0  0  0  0  0  0
  -18.2560   44.8986  -25.9486 C   0  0  0  0  0  0  0  0  0  0  0  0
  -17.3733   44.5670  -24.9099 C   0  0  0  0  0  0  0  0  0  0  0  0
  -17.8908   43.9617  -23.8073 C   0  0  0  0  0  0  0  0  0  0  0  0
  -17.1441   43.3629  -22.2474 S   0  0  0  0  0  0  0  0  0  0  0  0
  -17.6000   38.4422  -22.0507 N   0  0  0  0  0  0  0  0  0  0  0  0
  -18.2083   37.5940  -22.7973 C   0  0  0  0  0  0  0  0  0  0  0  0
  -17.6958   36.7881  -23.8334 C   0  0  0  0  0  0  0  0  0  0  0  0
  1  2  2  0
  2  3  1  0
  3  4  2  0
  4  5  1  0
  5  6  1  0
  6  7  1  0
  7  8  1  0
  8  9  1  0
  9 10  2  0
 10 11  1  0
 11 12  2  0
 12 13  1  0
 13 14  2  0
 14 15  1  0
 15 16  2  0
 16 17  1  0
  6 18  2  0
 18 19  1  0
 19 20  2  0
 20  1  1  0
 19  4  1  0
 17  9  1  0
 16 11  1  0
M  END
$$$$
