
     RDKit          3D

 19 21  0  0  0  0  0  0  0  0999 V2000
  -16.4833   36.9806  -21.1648 O   0  0  0  0  0  0  0  0  0  0  0  0
  -17.5168   37.3584  -21.7429 C   0  0  0  0  0  0  0  0  0  0  0  0
  -17.7387   38.6021  -22.0965 O   0  0  0  0  0  0  0  0  0  0  0  0
  -18.8180   39.0013  -22.7011 C   0  0  0  0  0  0  0  0  0  0  0  0
  -18.9851   40.3941  -23.0574 C   0  0  0  0  0  0  0  0  0  0  0  0
  -19.8071   40.7482  -24.1236 C   0  0  0  0  0  0  0  0  0  0  0  0
  -20.0013   42.0589  -24.5052 C   0  0  0  0  0  0  0  0  0  0  0  0
  -19.3707   43.0789  -23.8237 C   0  0  0  0  0  0  0  0  0  0  0  0
  -18.5614   42.7272  -22.7737 C   0  0  0  0  0  0  0  0  0  0  0  0
  -18.3638   41.4248  -22.3887 C   0  0  0  0  0  0  0  0  0  0  0  0
  -17.2290   40.9588  -20.9192 Br  0  0  0  0  0  0  0  0  0  0  0  0
  -19.7818   38.1287  -22.9985 N   0  0  0  0  0  0  0  0  0  0  0  0
  -19.6185   36.8311  -22.6628 C   0  0  0  0  0  0  0  0  0  0  0  0
  -20.5844   35.8810  -22.9459 C   0  0  0  0  0  0  0  0  0  0  0  0
  -20.3837   34.5650  -22.5884 C   0  0  0  0  0  0  0  0  0  0  0  0
  -19.2407   34.1371  -21.9471 C   0  0  0  0  0  0  0  0  0  0  0  0
  -18.2726   35.0787  -21.6612 C   0  0  0  0  0  0  0  0  0  0  0  0
  -16.7913   34.5788  -20.8409 Cl  0  0  0  0  0  0  0  0  0  0  0  0
  -18.4772   36.3955  -22.0208 C   0  0  0  0  0  0  0  0  0  0  0  0
  1  2  2  0
  2  3  1  0
  3  4  1  0
  4  5  1  0
  5  6  2  0
  6  7  1  0
  7  8  2  0
  8  9  1  0
  9 10  2  0
 10 11  1  0
  4 12  2  0
 12 13  1  0
 13 14  2  0
 14 15  1  0
 15 16  2  0
 16 17  1  0
 17 18  1  0
 17 19  2  0
 19  2  1  0
 10  5  1  0
 19 13  1  0
M  END
$$$$
