
     RDKit          3D

 12 13  0  0  0  0  0  0  0  0999 V2000
  -17.0752   45.2953  -20.9055 C   0  0  0  0  0  0  0  0  0  0  0  0
  -16.1358   44.5523  -21.6649 N   0  0  0  0  0  0  0  0  0  0  0  0
  -14.8923   45.3503  -21.6625 C   0  0  0  0  0  0  0  0  0  0  0  0
  -14.1262   44.8916  -20.4505 C   0  0  0  0  0  0  0  0  0  0  0  0
  -14.9264   43.7307  -19.8982 C   0  0  0  0  0  0  0  0  0  0  0  0
  -15.6734   43.3226  -21.1746 C   0  0  0  0  0  0  0  0  0  0  0  0
  -16.5478   42.2027  -21.0025 C   0  0  0  0  0  0  0  0  0  0  0  0
  -16.6791   41.1017  -21.8104 C   0  0  0  0  0  0  0  0  0  0  0  0
  -17.5496   40.0790  -21.5575 C   0  0  0  0  0  0  0  0  0  0  0  0
  -18.3396   40.1538  -20.4320 C   0  0  0  0  0  0  0  0  0  0  0  0
  -18.2505   41.1952  -19.6209 N   0  0  0  0  0  0  0  0  0  0  0  0
  -17.3906   42.1929  -19.8817 C   0  0  0  0  0  0  0  0  0  0  0  0
  1  2  1  0
  2  3  1  0
  3  4  1  0
  4  5  1  0
  5  6  1  0
  6  7  1  0
  7  8  2  0
  8  9  1  0
  9 10  2  0
 10 11  1  0
 11 12  2  0
  6  2  1  0
 12  7  1  0
M  END
$$$$
