
     RDKit          3D

 41 43  0  0  0  0  0  0  0  0999 V2000
  -21.5060   37.3473  -29.2049 C   0  0  0  0  0  0  0  0  0  0  0  0
  -21.6230   37.6687  -27.7187 C   0  0  0  0  0  0  0  0  0  0  0  0
  -21.4651   36.5078  -26.9314 O   0  0  0  0  0  0  0  0  0  0  0  0
  -21.6183   36.6009  -25.5458 C   0  0  0  0  0  0  0  0  0  0  0  0
  -22.6651   36.1071  -25.0824 O   0  0  0  0  0  0  0  0  0  0  0  0
  -20.6198   37.2281  -24.7421 N   0  0  0  0  0  0  0  0  0  0  0  0
  -19.8187   36.4297  -23.8978 C   0  0  0  0  0  0  0  0  0  0  0  0
  -19.5194   35.1218  -24.1920 C   0  0  0  0  0  0  0  0  0  0  0  0
  -18.7722   34.3844  -23.2878 C   0  0  0  0  0  0  0  0  0  0  0  0
  -18.3306   34.9353  -22.1154 C   0  0  0  0  0  0  0  0  0  0  0  0
  -17.5274   34.1070  -21.1607 C   0  0  0  0  0  0  0  0  0  0  0  0
  -17.2726   32.8749  -21.7193 F   0  0  0  0  0  0  0  0  0  0  0  0
  -18.2504   33.9953  -19.9934 F   0  0  0  0  0  0  0  0  0  0  0  0
  -16.3750   34.8156  -20.9053 F   0  0  0  0  0  0  0  0  0  0  0  0
  -18.6193   36.2480  -21.8031 C   0  0  0  0  0  0  0  0  0  0  0  0
  -19.3574   36.9839  -22.6941 C   0  0  0  0  0  0  0  0  0  0  0  0
  -19.6333   38.4047  -22.3549 C   0  0  1  0  0  0  0  0  0  0  0  0
  -18.5288   38.9095  -21.5726 N   0  0  0  0  0  0  0  0  0  0  0  0
  -17.2203   39.2243  -22.0278 C   0  0  0  0  0  0  0  0  0  0  0  0
  -17.0027   40.6433  -22.3298 C   0  0  0  0  0  0  0  0  0  0  0  0
  -16.8973   41.6377  -21.3698 C   0  0  0  0  0  0  0  0  0  0  0  0
  -16.7230   42.9734  -21.6920 C   0  0  0  0  0  0  0  0  0  0  0  0
  -16.6143   44.0084  -20.6302 C   0  0  0  0  0  0  0  0  0  0  0  0
  -17.6135   44.9536  -20.8267 F   0  0  0  0  0  0  0  0  0  0  0  0
  -16.7311   43.4514  -19.3710 F   0  0  0  0  0  0  0  0  0  0  0  0
  -15.3755   44.6342  -20.7061 F   0  0  0  0  0  0  0  0  0  0  0  0
  -16.6444   43.3897  -23.0029 C   0  0  0  0  0  0  0  0  0  0  0  0
  -16.7455   42.4295  -23.9752 C   0  0  0  0  0  0  0  0  0  0  0  0
  -16.6604   42.8805  -25.4014 C   0  0  0  0  0  0  0  0  0  0  0  0
  -17.2893   44.0788  -25.5947 F   0  0  0  0  0  0  0  0  0  0  0  0
  -15.3245   43.0013  -25.7093 F   0  0  0  0  0  0  0  0  0  0  0  0
  -17.2499   41.9330  -26.2206 F   0  0  0  0  0  0  0  0  0  0  0  0
  -16.9180   41.1082  -23.6484 C   0  0  0  0  0  0  0  0  0  0  0  0
  -18.8150   39.1723  -20.1787 C   0  0  0  0  0  0  0  0  0  0  0  0
  -18.2469   40.0576  -19.5319 O   0  0  0  0  0  0  0  0  0  0  0  0
  -19.7770   38.4090  -19.4882 O   0  0  0  0  0  0  0  0  0  0  0  0
  -19.9000   38.4517  -18.0885 C   0  0  0  0  0  0  0  0  0  0  0  0
  -20.0451   39.2755  -23.4680 C   0  0  0  0  0  0  0  0  0  0  0  0
  -20.4461   38.6698  -24.7529 C   0  0  1  0  0  0  0  0  0  0  0  0
  -19.7181   39.1771  -25.9754 C   0  0  0  0  0  0  0  0  0  0  0  0
  -20.5722   39.7303  -27.0489 C   0  0  0  0  0  0  0  0  0  0  0  0
  1  2  1  0
  2  3  1  0
  3  4  1  0
  4  5  2  0
  4  6  1  0
  6  7  1  0
  7  8  2  0
  8  9  1  0
  9 10  2  0
 10 11  1  0
 11 12  1  0
 11 13  1  0
 11 14  1  0
 10 15  1  0
 15 16  2  0
 16 17  1  0
 17 18  1  6
 18 19  1  0
 19 20  1  0
 20 21  2  0
 21 22  1  0
 22 23  1  0
 23 24  1  0
 23 25  1  0
 23 26  1  0
 22 27  2  0
 27 28  1  0
 28 29  1  0
 29 30  1  0
 29 31  1  0
 29 32  1  0
 28 33  2  0
 18 34  1  0
 34 35  2  0
 34 36  1  0
 36 37  1  0
 17 38  1  0
 38 39  1  0
 39 40  1  6
 40 41  1  0
 39  6  1  0
 16  7  1  0
 33 20  1  0
M  END
$$$$
