
     RDKit          3D

 36 40  0  0  0  0  0  0  0  0999 V2000
  -21.9653   31.6850  -23.1680 C   0  0  0  0  0  0  0  0  0  0  0  0
  -20.7514   32.5780  -23.1206 C   0  0  0  0  0  0  0  0  0  0  0  0
  -20.5326   33.1367  -21.7441 C   0  0  0  0  0  0  0  0  0  0  0  0
  -19.6192   34.2526  -21.7953 N   0  0  0  0  0  0  0  0  0  0  0  0
  -18.2950   34.1448  -21.5814 C   0  0  0  0  0  0  0  0  0  0  0  0
  -17.7816   33.0138  -21.3027 O   0  0  0  0  0  0  0  0  0  0  0  0
  -17.4909   35.2256  -21.6561 N   0  0  0  0  0  0  0  0  0  0  0  0
  -17.9176   36.4583  -21.9383 C   0  0  0  0  0  0  0  0  0  0  0  0
  -17.3476   37.6796  -22.0722 N   0  0  0  0  0  0  0  0  0  0  0  0
  -18.2905   38.5816  -22.3710 C   0  0  0  0  0  0  0  0  0  0  0  0
  -18.1168   40.0241  -22.6015 C   0  0  0  0  0  0  0  0  0  0  0  0
  -19.0074   40.7449  -23.3376 C   0  0  0  0  0  0  0  0  0  0  0  0
  -18.8399   42.1141  -23.5553 C   0  0  0  0  0  0  0  0  0  0  0  0
  -17.7652   42.7788  -23.0304 C   0  0  0  0  0  0  0  0  0  0  0  0
  -17.5047   44.4799  -23.2677 S   0  0  0  0  0  6  0  0  0  0  0  0
  -18.2366   44.9733  -24.4892 O   0  0  0  0  0  0  0  0  0  0  0  0
  -16.0310   44.7383  -23.5464 O   0  0  0  0  0  0  0  0  0  0  0  0
  -17.9450   45.3591  -21.8668 N   0  0  0  0  0  0  0  0  0  0  0  0
  -16.7656   45.6853  -21.0936 C   0  0  0  0  0  0  0  0  0  0  0  0
  -17.1351   45.9249  -19.6320 C   0  0  0  0  0  0  0  0  0  0  0  0
  -18.4461   46.5107  -19.5520 N   0  0  0  0  0  0  0  0  0  0  0  0
  -18.7317   47.7807  -18.9804 C   0  0  0  0  0  0  0  0  0  0  0  0
  -17.7976   48.5767  -18.3745 C   0  0  0  0  0  0  0  0  0  0  0  0
  -18.1552   49.8157  -17.8289 C   0  0  0  0  0  0  0  0  0  0  0  0
  -19.4542   50.2681  -17.8865 C   0  0  0  0  0  0  0  0  0  0  0  0
  -19.9610   51.8091  -17.2222 Cl  0  0  0  0  0  0  0  0  0  0  0  0
  -20.3956   49.4668  -18.4967 C   0  0  0  0  0  0  0  0  0  0  0  0
  -20.0301   48.2512  -19.0285 C   0  0  0  0  0  0  0  0  0  0  0  0
  -19.5402   45.7063  -20.1145 C   0  0  0  0  0  0  0  0  0  0  0  0
  -18.8979   44.6780  -21.0428 C   0  0  0  0  0  0  0  0  0  0  0  0
  -16.8605   42.0238  -22.2771 C   0  0  0  0  0  0  0  0  0  0  0  0
  -17.0353   40.6717  -22.0681 C   0  0  0  0  0  0  0  0  0  0  0  0
  -19.4485   37.9135  -22.4218 N   0  0  0  0  0  0  0  0  0  0  0  0
  -19.2765   36.6083  -22.1643 C   0  0  0  0  0  0  0  0  0  0  0  0
  -20.0920   35.5020  -22.0870 C   0  0  0  0  0  0  0  0  0  0  0  0
  -21.3185   35.6778  -22.2982 O   0  0  0  0  0  0  0  0  0  0  0  0
  1  2  1  0
  2  3  1  0
  3  4  1  0
  4  5  1  0
  5  6  2  0
  5  7  1  0
  7  8  1  0
  8  9  1  0
  9 10  2  0
 10 11  1  0
 11 12  2  0
 12 13  1  0
 13 14  2  0
 14 15  1  0
 15 16  2  0
 15 17  2  0
 15 18  1  0
 18 19  1  0
 19 20  1  0
 20 21  1  0
 21 22  1  0
 22 23  2  0
 23 24  1  0
 24 25  2  0
 25 26  1  0
 25 27  1  0
 27 28  2  0
 21 29  1  0
 29 30  1  0
 14 31  1  0
 31 32  2  0
 10 33  1  0
 33 34  1  0
 34 35  1  0
 35 36  2  0
 35  4  1  0
 34  8  2  0
 32 11  1  0
 30 18  1  0
 28 22  1  0
M  END
$$$$
