
     RDKit          3D

 25 29  0  0  0  0  0  0  0  0999 V2000
  -19.7616   42.5772  -20.8011 O   0  0  0  0  0  0  0  0  0  0  0  0
  -19.2982   41.4125  -20.7795 C   0  0  0  0  0  0  0  0  0  0  0  0
  -19.0527   40.6642  -19.5763 N   0  0  0  0  0  0  0  0  0  0  0  0
  -18.5288   39.3905  -19.9256 C   0  0  0  0  0  0  0  0  0  0  0  0
  -18.2192   38.5281  -19.0670 O   0  0  0  0  0  0  0  0  0  0  0  0
  -18.4624   39.3833  -21.3751 C   0  0  0  0  0  0  0  0  0  0  0  0
  -17.9480   38.3117  -22.2173 C   0  0  0  0  0  0  0  0  0  0  0  0
  -16.9317   38.4592  -23.1752 C   0  0  0  0  0  0  0  0  0  0  0  0
  -16.7260   37.2657  -23.7518 N   0  0  0  0  0  0  0  0  0  0  0  0
  -17.5636   36.3587  -23.2095 C   0  0  0  0  0  0  0  0  0  0  0  0
  -17.7777   35.0028  -23.4269 C   0  0  0  0  0  0  0  0  0  0  0  0
  -18.7254   34.2989  -22.7194 C   0  0  0  0  0  0  0  0  0  0  0  0
  -19.4841   34.9569  -21.7671 C   0  0  0  0  0  0  0  0  0  0  0  0
  -19.3021   36.2835  -21.5257 C   0  0  0  0  0  0  0  0  0  0  0  0
  -18.3353   36.9910  -22.2508 C   0  0  0  0  0  0  0  0  0  0  0  0
  -18.8980   40.5311  -21.8913 C   0  0  0  0  0  0  0  0  0  0  0  0
  -19.0301   40.9083  -23.2882 C   0  0  0  0  0  0  0  0  0  0  0  0
  -18.5365   42.0184  -23.9241 C   0  0  0  0  0  0  0  0  0  0  0  0
  -18.9208   41.9588  -25.2114 N   0  0  0  0  0  0  0  0  0  0  0  0
  -19.6478   40.8605  -25.4571 C   0  0  0  0  0  0  0  0  0  0  0  0
  -20.2741   40.3399  -26.5686 C   0  0  0  0  0  0  0  0  0  0  0  0
  -20.9816   39.1581  -26.5077 C   0  0  0  0  0  0  0  0  0  0  0  0
  -21.0653   38.4859  -25.3175 C   0  0  0  0  0  0  0  0  0  0  0  0
  -20.4338   39.0147  -24.2101 C   0  0  0  0  0  0  0  0  0  0  0  0
  -19.7248   40.1909  -24.2566 C   0  0  0  0  0  0  0  0  0  0  0  0
  1  2  2  0
  2  3  1  0
  3  4  1  0
  4  5  2  0
  4  6  1  0
  6  7  1  0
  7  8  2  0
  8  9  1  0
  9 10  1  0
 10 11  2  0
 11 12  1  0
 12 13  2  0
 13 14  1  0
 14 15  2  0
  6 16  2  0
 16 17  1  0
 17 18  2  0
 18 19  1  0
 19 20  1  0
 20 21  2  0
 21 22  1  0
 22 23  2  0
 23 24  1  0
 24 25  2  0
 16  2  1  0
 25 17  1  0
 15  7  1  0
 25 20  1  0
 15 10  1  0
M  END
$$$$
