
     RDKit          3D

 21 22  0  0  0  0  0  0  0  0999 V2000
  -20.3235   43.1902  -22.0694 C   0  0  0  0  0  0  0  0  0  0  0  0
  -19.4743   42.2981  -21.4112 O   0  0  0  0  0  0  0  0  0  0  0  0
  -19.1272   41.0779  -21.9599 C   0  0  0  0  0  0  0  0  0  0  0  0
  -19.6278   40.7541  -23.1613 N   0  0  0  0  0  0  0  0  0  0  0  0
  -19.2919   39.5666  -23.6986 C   0  0  0  0  0  0  0  0  0  0  0  0
  -18.4878   38.7112  -23.0880 N   0  0  0  0  0  0  0  0  0  0  0  0
  -17.9526   39.0283  -21.8354 C   0  0  0  0  0  0  0  0  0  0  0  0
  -17.0395   38.0845  -21.3682 N   0  0  0  0  0  0  0  0  0  0  0  0
  -16.7503   36.4555  -21.6879 S   0  0  0  0  0  6  0  0  0  0  0  0
  -15.8529   36.3373  -22.9330 O   0  0  0  0  0  0  0  0  0  0  0  0
  -15.9228   35.8634  -20.5120 O   0  0  0  0  0  0  0  0  0  0  0  0
  -18.1131   35.4148  -21.9136 C   0  0  0  0  0  0  0  0  0  0  0  0
  -18.4532   34.5065  -20.9067 C   0  0  0  0  0  0  0  0  0  0  0  0
  -19.5683   33.6997  -20.9969 C   0  0  0  0  0  0  0  0  0  0  0  0
  -20.3951   33.7676  -22.1042 C   0  0  0  0  0  0  0  0  0  0  0  0
  -21.5387   32.9297  -22.1806 N   0  0  0  0  0  0  0  0  0  0  0  0
  -20.0431   34.6675  -23.0837 C   0  0  0  0  0  0  0  0  0  0  0  0
  -18.9420   35.4763  -23.0136 C   0  0  0  0  0  0  0  0  0  0  0  0
  -18.2653   40.2006  -21.2636 C   0  0  0  0  0  0  0  0  0  0  0  0
  -17.8273   40.6512  -20.0505 O   0  0  0  0  0  0  0  0  0  0  0  0
  -16.9197   41.7558  -19.9587 C   0  0  0  0  0  0  0  0  0  0  0  0
  1  2  1  0
  2  3  1  0
  3  4  2  0
  4  5  1  0
  5  6  2  0
  6  7  1  0
  7  8  1  0
  8  9  1  0
  9 10  2  0
  9 11  2  0
  9 12  1  0
 12 13  2  0
 13 14  1  0
 14 15  2  0
 15 16  1  0
 15 17  1  0
 17 18  2  0
  7 19  2  0
 19 20  1  0
 20 21  1  0
 19  3  1  0
 18 12  1  0
M  END
$$$$
