
     RDKit          3D

 30 33  0  0  0  0  0  0  0  0999 V2000
  -24.2064   -2.4240  -35.1392 N   0  0  0  0  0  0  0  0  0  0  0  0
  -23.3852   -1.2316  -35.1244 C   0  0  1  0  0  0  0  0  0  0  0  0
  -23.1011   -0.7336  -33.7284 C   0  0  0  0  0  0  0  0  0  0  0  0
  -21.6709   -0.9890  -33.3512 C   0  0  0  0  0  0  0  0  0  0  0  0
  -20.6802   -0.3721  -34.3036 C   0  0  2  0  0  0  0  0  0  0  0  0
  -20.3298    0.9750  -33.9414 N   0  0  0  0  0  0  0  0  0  0  0  0
  -19.0645    1.2188  -33.3475 C   0  0  0  0  0  0  0  0  0  0  0  0
  -18.2691    0.1529  -33.0221 C   0  0  0  0  0  0  0  0  0  0  0  0
  -16.9991    0.3126  -32.4279 C   0  0  0  0  0  0  0  0  0  0  0  0
  -16.2192   -0.8670  -32.1465 C   0  0  0  0  0  0  0  0  0  0  0  0
  -15.0511   -1.2738  -32.7096 C   0  0  0  0  0  0  0  0  0  0  0  0
  -14.3530   -2.4246  -32.3362 C   0  0  0  0  0  0  0  0  0  0  0  0
  -14.8569   -3.2079  -31.3418 C   0  0  0  0  0  0  0  0  0  0  0  0
  -16.0476   -2.8011  -30.7599 C   0  0  0  0  0  0  0  0  0  0  0  0
  -16.5531   -3.6386  -29.7238 N   0  0  0  0  0  0  0  0  0  0  0  0
  -15.6443   -4.5771  -29.1101 C   0  0  0  0  0  0  0  0  0  0  0  0
  -15.5604   -4.2986  -27.6643 C   0  0  0  0  0  0  0  0  0  0  0  0
  -14.6184   -4.9317  -26.8940 C   0  0  0  0  0  0  0  0  0  0  0  0
  -14.5606   -4.6542  -25.5417 C   0  0  0  0  0  0  0  0  0  0  0  0
  -15.4273   -3.7559  -24.9480 C   0  0  0  0  0  0  0  0  0  0  0  0
  -16.3723   -3.1288  -25.7540 C   0  0  0  0  0  0  0  0  0  0  0  0
  -17.2178   -2.2525  -25.1754 F   0  0  0  0  0  0  0  0  0  0  0  0
  -16.4397   -3.3971  -27.1028 C   0  0  0  0  0  0  0  0  0  0  0  0
  -16.6833   -1.6882  -31.1514 N   0  0  0  0  0  0  0  0  0  0  0  0
  -16.6290    1.6053  -32.2063 C   0  0  0  0  0  0  0  0  0  0  0  0
  -15.0407    1.9396  -31.5141 Cl  0  0  0  0  0  0  0  0  0  0  0  0
  -17.4406    2.7058  -32.5372 C   0  0  0  0  0  0  0  0  0  0  0  0
  -18.6262    2.4741  -33.0945 N   0  0  0  0  0  0  0  0  0  0  0  0
  -21.1089   -0.4063  -35.7319 C   0  0  0  0  0  0  0  0  0  0  0  0
  -22.1387   -1.5025  -35.9032 C   0  0  0  0  0  0  0  0  0  0  0  0
  2  1  1  1
  2  3  1  0
  3  4  1  0
  4  5  1  0
  5  6  1  1
  6  7  1  0
  7  8  2  0
  8  9  1  0
  9 10  1  0
 10 11  2  0
 11 12  1  0
 12 13  2  0
 13 14  1  0
 14 15  1  0
 15 16  1  0
 16 17  1  0
 17 18  2  0
 18 19  1  0
 19 20  2  0
 20 21  1  0
 21 22  1  0
 21 23  2  0
 14 24  2  0
  9 25  2  0
 25 26  1  0
 25 27  1  0
 27 28  2  0
  5 29  1  0
 29 30  1  0
 30  2  1  0
 28  7  1  0
 24 10  1  0
 23 17  1  0
M  END
$$$$
