
     RDKit          3D

 32 29  0  0  0  0  0  0  0  0999 V2000
  -30.9697   17.9065  -29.0797 C   0  0  0  0  0  0  0  0  0  0  0  0
  -30.3050   17.3884  -27.8248 C   0  0  2  0  0  0  0  0  0  0  0  0
  -29.4450   16.2776  -28.0529 N   0  0  0  0  0  0  0  0  0  0  0  0
  -28.3555   16.5687  -28.9617 C   0  0  0  0  0  0  0  0  0  0  0  0
  -27.4849   17.6444  -28.4813 C   0  0  0  0  0  0  0  0  0  0  0  0
  -27.0543   18.6702  -29.3234 C   0  0  0  0  0  0  0  0  0  0  0  0
  -26.2461   19.6725  -28.8855 C   0  0  0  0  0  0  0  0  0  0  0  0
  -25.8149   19.7254  -27.5978 C   0  0  0  0  0  0  0  0  0  0  0  0
  -26.2143   18.7343  -26.7301 C   0  0  0  0  0  0  0  0  0  0  0  0
  -25.7818   18.7883  -25.4406 N   0  0  0  0  0  0  0  0  0  0  0  0
  -26.1683   17.8244  -24.5903 C   0  0  0  0  0  0  0  0  0  0  0  0
  -25.7126   17.9059  -23.2853 O   0  0  0  0  0  1  0  0  0  0  0  0
  -26.9895   16.8067  -25.0370 C   0  0  0  0  0  0  0  0  0  0  0  0
  -27.3406   15.8452  -24.0765 O   0  0  0  0  0  1  0  0  0  0  0  0
  -27.4247   16.7402  -26.3079 N   0  0  0  0  0  0  0  0  0  0  0  0
  -27.0341   17.7157  -27.1703 C   0  0  0  0  0  0  0  0  0  0  0  0
  -27.4587   15.0669  -29.4178 P   0  0  0  0  0  5  0  0  0  0  0  0
  -27.0785   14.2487  -28.2143 O   0  0  0  0  0  0  0  0  0  0  0  0
  -28.4235   14.1039  -30.4331 O   0  0  0  0  0  1  0  0  0  0  0  0
  -26.0885   15.5110  -30.3122 O   0  0  0  0  0  1  0  0  0  0  0  0
  -31.3931   16.9885  -26.8958 C   0  0  0  0  0  0  0  0  0  0  0  0
  -32.0921   15.8151  -27.0584 C   0  0  0  0  0  0  0  0  0  0  0  0
  -33.0964   15.4737  -26.1748 C   0  0  0  0  0  0  0  0  0  0  0  0
  -33.4406   16.2783  -25.1064 C   0  0  0  0  0  0  0  0  0  0  0  0
  -34.8372   15.7898  -23.8891 Br  0  0  0  0  0  0  0  0  0  0  0  0
  -32.7220   17.4458  -24.9718 C   0  0  0  0  0  0  0  0  0  0  0  0
  -31.7161   17.8088  -25.8390 C   0  0  0  0  0  0  0  0  0  0  0  0
  -29.1843   17.1234  -26.9653 O   0  0  0  0  0  0  0  0  0  0  0  0
  -29.1741   17.2409  -27.3486 Na  0  0  0  0  0 15  0  0  0  0  0  0
  -29.1741   17.2409  -27.3486 Na  0  0  0  0  0 15  0  0  0  0  0  0
  -29.1741   17.2409  -27.3486 Na  0  0  0  0  0 15  0  0  0  0  0  0
  -29.1741   17.2409  -27.3486 Na  0  0  0  0  0 15  0  0  0  0  0  0
  2  1  1  6
  2  3  1  0
  3  4  1  0
  4  5  1  0
  5  6  2  0
  6  7  1  0
  7  8  2  0
  8  9  1  0
  9 10  2  0
 10 11  1  0
 11 12  1  0
 11 13  2  0
 13 14  1  0
 13 15  1  0
 15 16  2  0
  4 17  1  0
 17 18  2  0
 17 19  1  0
 17 20  1  0
  2 21  1  0
 21 22  2  0
 22 23  1  0
 23 24  2  0
 24 25  1  0
 24 26  1  0
 26 27  2  0
 16  5  1  0
 27 21  1  0
 16  9  1  0
M  CHG  8  12  -1  14  -1  19  -1  20  -1  29   1  30   1  31   1  32   1
M  END
$$$$
