
     RDKit          3D

 19 21  0  0  0  0  0  0  0  0999 V2000
  -16.0159   36.5009  -21.1530 C   0  0  0  0  0  0  0  0  0  0  0  0
  -17.0901   37.2377  -20.5957 O   0  0  0  0  0  0  0  0  0  0  0  0
  -17.8711   38.0139  -21.4232 C   0  0  0  0  0  0  0  0  0  0  0  0
  -17.5473   39.3399  -21.6068 C   0  0  0  0  0  0  0  0  0  0  0  0
  -16.5755   40.0917  -21.1260 O   0  0  0  0  0  0  0  0  0  0  0  0
  -16.6817   41.3118  -21.5948 C   0  0  0  0  0  0  0  0  0  0  0  0
  -17.7969   41.3569  -22.4366 C   0  0  0  0  0  0  0  0  0  0  0  0
  -18.3452   40.0951  -22.4401 C   0  0  0  0  0  0  0  0  0  0  0  0
  -19.4363   39.5188  -23.0654 C   0  0  0  0  0  0  0  0  0  0  0  0
  -20.2312   40.2711  -23.8957 O   0  0  0  0  0  0  0  0  0  0  0  0
  -19.7234   40.5320  -25.2134 C   0  0  0  0  0  0  0  0  0  0  0  0
  -19.7587   38.1797  -22.8767 C   0  0  0  0  0  0  0  0  0  0  0  0
  -20.8336   37.5631  -23.4771 C   0  0  0  0  0  0  0  0  0  0  0  0
  -21.5725   38.2235  -24.2364 O   0  0  0  0  0  0  0  0  0  0  0  0
  -21.1188   36.2312  -23.2631 C   0  0  0  0  0  0  0  0  0  0  0  0
  -20.2689   35.5299  -22.4083 C   0  0  0  0  0  0  0  0  0  0  0  0
  -20.5411   34.0758  -22.1456 C   0  0  0  0  0  0  0  0  0  0  0  0
  -19.2542   36.1469  -21.8527 O   0  0  0  0  0  0  0  0  0  0  0  0
  -18.9669   37.4143  -22.0446 C   0  0  0  0  0  0  0  0  0  0  0  0
  1  2  1  0
  2  3  1  0
  3  4  2  0
  4  5  1  0
  5  6  1  0
  6  7  2  0
  7  8  1  0
  8  9  2  0
  9 10  1  0
 10 11  1  0
  9 12  1  0
 12 13  1  0
 13 14  2  0
 13 15  1  0
 15 16  2  0
 16 17  1  0
 16 18  1  0
 18 19  1  0
 19  3  1  0
  8  4  1  0
 19 12  2  0
M  END
$$$$
