
     RDKit          3D

 26 28  0  0  0  0  0  0  0  0999 V2000
  -14.0899   16.7610  -28.7224 N   0  0  0  0  0  0  0  0  0  0  0  0
  -14.9297   16.2445  -29.3714 C   0  0  0  0  0  0  0  0  0  0  0  0
  -15.9430   15.6279  -30.1814 C   0  0  0  0  0  0  0  0  0  0  0  0
  -15.6206   14.5852  -31.0164 C   0  0  0  0  0  0  0  0  0  0  0  0
  -14.2486   14.0654  -31.1121 C   0  0  0  0  0  0  0  0  0  0  0  0
  -13.7505   12.8507  -31.4709 C   0  0  0  0  0  0  0  0  0  0  0  0
  -12.4227   12.6663  -31.4625 C   0  0  0  0  0  0  0  0  0  0  0  0
  -11.6224   13.6840  -31.1008 C   0  0  0  0  0  0  0  0  0  0  0  0
  -12.7503   15.0296  -30.7323 S   0  0  0  0  0  0  0  0  0  0  0  0
  -16.5940   14.0407  -31.7540 N   0  0  0  0  0  0  0  0  0  0  0  0
  -17.8717   14.5074  -31.6795 C   0  0  0  0  0  0  0  0  0  0  0  0
  -19.0740   13.7445  -32.7220 S   0  0  0  0  0  0  0  0  0  0  0  0
  -20.6641   14.5252  -32.6411 C   0  0  0  0  0  0  0  0  0  0  0  0
  -20.7248   15.8199  -33.3619 C   0  0  0  0  0  0  0  0  0  0  0  0
  -19.7099   16.4266  -34.0321 C   0  0  0  0  0  0  0  0  0  0  0  0
  -19.8852   17.6428  -34.7023 C   0  0  0  0  0  0  0  0  0  0  0  0
  -21.1169   18.2534  -34.6891 C   0  0  0  0  0  0  0  0  0  0  0  0
  -22.1845   17.6707  -34.0160 C   0  0  0  0  0  0  0  0  0  0  0  0
  -23.5088   18.3486  -34.0144 C   0  0  0  0  0  0  0  0  0  0  0  0
  -24.4005   17.6519  -34.9485 C   0  0  0  0  0  0  0  0  0  0  0  0
  -25.4636   17.1479  -34.5583 O   0  0  0  0  0  0  0  0  0  0  0  0
  -24.0885   17.5317  -36.2969 O   0  0  0  0  0  0  0  0  0  0  0  0
  -21.9528   16.4841  -33.3812 C   0  0  0  0  0  0  0  0  0  0  0  0
  -18.1770   15.5326  -30.8539 N   0  0  0  0  0  0  0  0  0  0  0  0
  -17.2397   16.1164  -30.0920 C   0  0  0  0  0  0  0  0  0  0  0  0
  -17.4620   17.0656  -29.3128 O   0  0  0  0  0  0  0  0  0  0  0  0
  1  2  3  0
  2  3  1  0
  3  4  2  0
  4  5  1  0
  5  6  2  0
  6  7  1  0
  7  8  2  0
  8  9  1  0
  4 10  1  0
 10 11  2  0
 11 12  1  0
 12 13  1  0
 13 14  1  0
 14 15  2  0
 15 16  1  0
 16 17  2  0
 17 18  1  0
 18 19  1  0
 19 20  1  0
 20 21  2  0
 20 22  1  0
 18 23  2  0
 11 24  1  0
 24 25  1  0
 25 26  2  0
 25  3  1  0
  9  5  1  0
 23 14  1  0
M  END
$$$$
