
     RDKit          3D

 20 22  0  0  0  0  0  0  0  0999 V2000
  -27.5488   17.7353  -24.9190 O   0  0  0  0  0  0  0  0  0  0  0  0
  -28.5349   17.3078  -25.5313 C   0  0  0  0  0  0  0  0  0  0  0  0
  -28.9529   17.9697  -26.7642 C   0  0  0  0  0  0  0  0  0  0  0  0
  -28.9446   19.2821  -26.8774 C   0  0  0  0  0  0  0  0  0  0  0  0
  -29.1738   19.9803  -28.1440 C   0  0  0  0  0  0  0  0  0  0  0  0
  -29.9644   19.5038  -29.1522 C   0  0  0  0  0  0  0  0  0  0  0  0
  -30.1693   20.1716  -30.3351 C   0  0  0  0  0  0  0  0  0  0  0  0
  -29.5379   21.3832  -30.4979 C   0  0  0  0  0  0  0  0  0  0  0  0
  -29.7288   22.0710  -31.6764 C   0  0  0  0  0  0  0  0  0  0  0  0
  -29.0946   23.2864  -31.8381 C   0  0  0  0  0  0  0  0  0  0  0  0
  -28.3040   23.7592  -30.8256 C   0  0  0  0  0  0  0  0  0  0  0  0
  -28.0997   23.0937  -29.6465 C   0  0  0  0  0  0  0  0  0  0  0  0
  -28.7438   21.8590  -29.4819 C   0  0  0  0  0  0  0  0  0  0  0  0
  -28.5629   21.1904  -28.3455 N   0  0  0  0  0  0  0  0  0  0  0  0
  -29.2656   16.1575  -25.0226 C   0  0  0  0  0  0  0  0  0  0  0  0
  -28.9443   15.6222  -23.7742 C   0  0  0  0  0  0  0  0  0  0  0  0
  -29.5819   14.5409  -23.2206 C   0  0  0  0  0  0  0  0  0  0  0  0
  -30.5846   13.9551  -23.9263 N   0  0  0  0  0  0  0  0  0  0  0  0
  -30.9433   14.4222  -25.1354 C   0  0  0  0  0  0  0  0  0  0  0  0
  -30.2886   15.5241  -25.6918 C   0  0  0  0  0  0  0  0  0  0  0  0
  1  2  2  0
  2  3  1  0
  3  4  2  0
  4  5  1  0
  5  6  2  0
  6  7  1  0
  7  8  2  0
  8  9  1  0
  9 10  2  0
 10 11  1  0
 11 12  2  0
 12 13  1  0
 13 14  2  0
  2 15  1  0
 15 16  2  0
 16 17  1  0
 17 18  2  0
 18 19  1  0
 19 20  2  0
 14  5  1  0
 20 15  1  0
 13  8  1  0
M  END
$$$$
