
     RDKit          3D

 13 14  0  0  0  0  0  0  0  0999 V2000
  -19.0534   31.7529  -21.9932 C   0  0  0  0  0  0  0  0  0  0  0  0
  -18.6257   33.1746  -21.8758 C   0  0  0  0  0  0  0  0  0  0  0  0
  -17.3725   33.4829  -21.5662 C   0  0  0  0  0  0  0  0  0  0  0  0
  -16.9272   34.8789  -21.4448 C   0  0  0  0  0  0  0  0  0  0  0  0
  -15.7249   35.1371  -21.1482 O   0  0  0  0  0  0  0  0  0  0  0  0
  -17.8426   35.9927  -21.6590 C   0  0  0  0  0  0  0  0  0  0  0  0
  -17.4466   37.3180  -21.5502 C   0  0  0  0  0  0  0  0  0  0  0  0
  -18.3282   38.3597  -21.7568 C   0  0  0  0  0  0  0  0  0  0  0  0
  -19.6356   38.0589  -22.0795 C   0  0  0  0  0  0  0  0  0  0  0  0
  -20.0234   36.7391  -22.1862 C   0  0  0  0  0  0  0  0  0  0  0  0
  -19.1433   35.6825  -21.9802 C   0  0  0  0  0  0  0  0  0  0  0  0
  -19.5437   34.2912  -22.0906 C   0  0  0  0  0  0  0  0  0  0  0  0
  -20.7280   34.0060  -22.3830 O   0  0  0  0  0  0  0  0  0  0  0  0
  1  2  1  0
  2  3  2  0
  3  4  1  0
  4  5  2  0
  4  6  1  0
  6  7  2  0
  7  8  1  0
  8  9  2  0
  9 10  1  0
 10 11  2  0
 11 12  1  0
 12 13  2  0
 12  2  1  0
 11  6  1  0
M  END
$$$$
