
     RDKit          3D

 20 20  0  0  0  0  0  0  0  0999 V2000
  -16.1256   38.4238  -22.5332 C   0  0  0  0  0  0  0  0  0  0  0  0
  -17.2865   37.5373  -22.7756 C   0  0  0  0  0  0  0  0  0  0  0  0
  -17.2370   36.2561  -22.2685 C   0  0  0  0  0  0  0  0  0  0  0  0
  -18.2810   35.3388  -22.4406 C   0  0  0  0  0  0  0  0  0  0  0  0
  -18.1589   33.9704  -21.8649 C   0  0  0  0  0  0  0  0  0  0  0  0
  -16.8328   33.8412  -21.1588 C   0  0  0  0  0  0  0  0  0  0  0  0
  -19.2530   33.6800  -20.8670 C   0  0  0  0  0  0  0  0  0  0  0  0
  -18.2060   33.0033  -23.0341 C   0  0  0  0  0  0  0  0  0  0  0  0
  -19.3997   35.7295  -23.1423 C   0  0  0  0  0  0  0  0  0  0  0  0
  -20.4683   34.8473  -23.3398 O   0  0  0  0  0  0  0  0  0  0  0  0
  -19.4294   37.0238  -23.6445 C   0  0  0  0  0  0  0  0  0  0  0  0
  -20.6723   37.4034  -24.4035 C   0  0  0  0  0  0  0  0  0  0  0  0
  -18.4043   37.9133  -23.4714 C   0  0  0  0  0  0  0  0  0  0  0  0
  -18.5107   39.2765  -24.0385 C   0  0  0  0  0  0  0  0  0  0  0  0
  -18.8055   40.3028  -23.0320 C   0  0  0  0  0  0  0  0  0  0  0  0
  -18.0655   41.3113  -22.7683 N   0  0  0  0  0  0  0  0  0  0  0  0
  -18.5758   42.1574  -21.7502 C   0  0  0  0  0  0  0  0  0  0  0  0
  -19.9582   41.6521  -21.4928 C   0  0  0  0  0  0  0  0  0  0  0  0
  -19.9425   40.3564  -22.1919 N   0  0  0  0  0  0  0  0  0  0  0  0
  -18.6620   37.8326  -22.4916 Cl  0  0  0  0  0  0  0  0  0  0  0  0
  1  2  1  0
  2  3  2  0
  3  4  1  0
  4  5  1  0
  5  6  1  0
  5  7  1  0
  5  8  1  0
  4  9  2  0
  9 10  1  0
  9 11  1  0
 11 12  1  0
 11 13  2  0
 13 14  1  0
 14 15  1  0
 15 16  2  0
 16 17  1  0
 17 18  1  0
 18 19  1  0
 13  2  1  0
 19 15  1  0
M  END
$$$$
