
     RDKit          3D

 13 14  0  0  0  0  0  0  0  0999 V2000
  -19.7473   33.6138  -20.8384 S   0  0  0  0  0  0  0  0  0  0  0  0
  -19.3687   34.5654  -22.2210 C   0  0  0  0  0  0  0  0  0  0  0  0
  -19.2704   34.3969  -23.5259 N   0  0  0  0  0  0  0  0  0  0  0  0
  -18.9597   35.3338  -24.3045 N   0  0  0  0  0  0  0  0  0  0  0  0
  -18.7061   36.5038  -24.0168 C   0  0  0  0  0  0  0  0  0  0  0  0
  -18.3483   37.7433  -24.5483 N   0  0  0  0  0  0  0  0  0  0  0  0
  -18.1367   38.8600  -23.7195 C   0  0  0  0  0  0  0  0  0  0  0  0
  -18.7111   40.0755  -24.0249 C   0  0  0  0  0  0  0  0  0  0  0  0
  -18.5343   41.2027  -23.2436 C   0  0  0  0  0  0  0  0  0  0  0  0
  -17.7606   41.1391  -22.1116 C   0  0  0  0  0  0  0  0  0  0  0  0
  -17.1719   39.9410  -21.7769 C   0  0  0  0  0  0  0  0  0  0  0  0
  -17.3660   38.8202  -22.5812 C   0  0  0  0  0  0  0  0  0  0  0  0
  -18.9296   36.3901  -22.1812 S   0  0  0  0  0  0  0  0  0  0  0  0
  1  2  1  0
  2  3  2  0
  3  4  1  0
  4  5  2  0
  5  6  1  0
  6  7  1  0
  7  8  2  0
  8  9  1  0
  9 10  2  0
 10 11  1  0
 11 12  2  0
  5 13  1  0
 13  2  1  0
 12  7  1  0
M  END
$$$$
