
     RDKit          3D

 37 40  0  0  0  0  0  0  0  0999 V2000
  -30.4187   13.5756  -26.3596 C   0  0  0  0  0  0  0  0  0  0  0  0
  -29.0114   13.4016  -26.0365 N   0  0  0  0  0  0  0  0  0  0  0  0
  -28.5479   12.0783  -26.4049 C   0  0  0  0  0  0  0  0  0  0  0  0
  -28.2018   14.4488  -26.6266 C   0  0  0  0  0  0  0  0  0  0  0  0
  -27.4356   13.9590  -27.8065 C   0  0  0  0  0  0  0  0  0  0  0  0
  -26.6756   14.7601  -28.5309 C   0  0  0  0  0  0  0  0  0  0  0  0
  -26.0184   14.3617  -29.7661 C   0  0  0  0  0  0  0  0  0  0  0  0
  -26.0896   13.1365  -30.1417 O   0  0  0  0  0  0  0  0  0  0  0  0
  -25.2916   15.2464  -30.5996 N   0  0  0  0  0  0  0  0  0  0  0  0
  -24.8266   14.8987  -31.9052 C   0  0  0  0  0  0  0  0  0  0  0  0
  -25.4573   13.9832  -32.6959 C   0  0  0  0  0  0  0  0  0  0  0  0
  -24.9621   13.7269  -33.9572 C   0  0  0  0  0  0  0  0  0  0  0  0
  -23.8256   14.4126  -34.3961 C   0  0  0  0  0  0  0  0  0  0  0  0
  -23.1945   15.3344  -33.5960 C   0  0  0  0  0  0  0  0  0  0  0  0
  -22.0363   16.0480  -34.0926 C   0  0  0  0  0  0  0  0  0  0  0  0
  -22.0227   16.4298  -35.3144 O   0  0  0  0  0  0  0  0  0  0  0  0
  -20.8898   16.3767  -33.3447 N   0  0  0  0  0  0  0  0  0  0  0  0
  -19.6689   16.8407  -33.9021 C   0  0  0  0  0  0  0  0  0  0  0  0
  -19.6616   18.0126  -34.6275 C   0  0  0  0  0  0  0  0  0  0  0  0
  -18.5291   18.5361  -35.2082 C   0  0  0  0  0  0  0  0  0  0  0  0
  -17.3427   17.8229  -35.0373 C   0  0  0  0  0  0  0  0  0  0  0  0
  -16.1847   18.3593  -35.6439 N   0  0  0  0  0  0  0  0  0  0  0  0
  -14.9714   17.6283  -35.5625 C   0  0  0  0  0  0  0  0  0  0  0  0
  -13.9501   17.9427  -36.4186 N   0  0  0  0  0  0  0  0  0  0  0  0
  -12.7949   17.2654  -36.3517 C   0  0  0  0  0  0  0  0  0  0  0  0
  -12.5794   16.2328  -35.4304 C   0  0  0  0  0  0  0  0  0  0  0  0
  -13.6170   15.9293  -34.5757 C   0  0  0  0  0  0  0  0  0  0  0  0
  -13.4871   14.8846  -33.5765 C   0  0  0  0  0  0  0  0  0  0  0  0
  -14.5394   14.2037  -33.0336 C   0  0  0  0  0  0  0  0  0  0  0  0
  -14.3455   13.1923  -32.0743 C   0  0  0  0  0  0  0  0  0  0  0  0
  -13.0603   12.8828  -31.6717 C   0  0  0  0  0  0  0  0  0  0  0  0
  -12.0415   13.5666  -32.2204 N   0  0  0  0  0  0  0  0  0  0  0  0
  -12.2122   14.5329  -33.1370 C   0  0  0  0  0  0  0  0  0  0  0  0
  -14.7380   16.6550  -34.7097 N   0  0  0  0  0  0  0  0  0  0  0  0
  -17.3006   16.6376  -34.3146 C   0  0  0  0  0  0  0  0  0  0  0  0
  -18.4834   16.1603  -33.7510 C   0  0  0  0  0  0  0  0  0  0  0  0
  -23.6947   15.5783  -32.3473 C   0  0  0  0  0  0  0  0  0  0  0  0
  1  2  1  0
  2  3  1  0
  2  4  1  0
  4  5  1  0
  5  6  2  0
  6  7  1  0
  7  8  2  0
  7  9  1  0
  9 10  1  0
 10 11  2  0
 11 12  1  0
 12 13  2  0
 13 14  1  0
 14 15  1  0
 15 16  2  0
 15 17  1  0
 17 18  1  0
 18 19  2  0
 19 20  1  0
 20 21  2  0
 21 22  1  0
 22 23  1  0
 23 24  2  0
 24 25  1  0
 25 26  2  0
 26 27  1  0
 27 28  1  0
 28 29  2  0
 29 30  1  0
 30 31  2  0
 31 32  1  0
 32 33  2  0
 27 34  2  0
 21 35  1  0
 35 36  2  0
 14 37  2  0
 37 10  1  0
 36 18  1  0
 34 23  1  0
 33 28  1  0
M  END
$$$$
