
     RDKit          3D

 32 33  0  0  0  0  0  0  0  0999 V2000
  -24.0471   13.8007  -34.8979 C   0  0  0  0  0  0  0  0  0  0  0  0
  -22.7026   13.4828  -34.2805 C   0  0  0  0  0  0  0  0  0  0  0  0
  -21.7613   14.5080  -34.5093 O   0  0  0  0  0  0  0  0  0  0  0  0
  -21.9497   15.7913  -34.0737 C   0  0  0  0  0  0  0  0  0  0  0  0
  -22.9938   16.0760  -33.4473 O   0  0  0  0  0  0  0  0  0  0  0  0
  -20.9129   16.8922  -34.3332 C   0  0  2  0  0  0  0  0  0  0  0  0
  -19.6398   16.3217  -33.7508 C   0  0  0  0  0  0  0  0  0  0  0  0
  -18.5084   17.2253  -33.8751 C   0  0  0  0  0  0  0  0  0  0  0  0
  -17.2078   16.7103  -33.3893 C   0  0  0  0  0  0  0  0  0  0  0  0
  -16.4196   16.0411  -34.3005 C   0  0  0  0  0  0  0  0  0  0  0  0
  -15.1857   15.5246  -33.9337 C   0  0  0  0  0  0  0  0  0  0  0  0
  -14.7269   15.6736  -32.6452 C   0  0  0  0  0  0  0  0  0  0  0  0
  -15.5095   16.3419  -31.7275 C   0  0  0  0  0  0  0  0  0  0  0  0
  -16.7365   16.8503  -32.1099 C   0  0  0  0  0  0  0  0  0  0  0  0
  -21.4120   18.0474  -33.7666 N   0  0  0  0  0  0  0  0  0  0  0  0
  -21.1170   19.3385  -34.2307 C   0  0  1  0  0  0  0  0  0  0  0  0
  -21.5933   19.5887  -35.6328 C   0  0  0  0  0  0  0  0  0  0  0  0
  -21.2463   20.8744  -36.2304 C   0  0  0  0  0  0  0  0  0  0  0  0
  -22.0266   22.0482  -35.8219 C   0  0  0  0  0  0  0  0  0  0  0  0
  -22.1859   22.9910  -36.8177 C   0  0  0  0  0  0  0  0  0  0  0  0
  -22.8954   24.1402  -36.5724 C   0  0  0  0  0  0  0  0  0  0  0  0
  -23.4374   24.3255  -35.3221 C   0  0  0  0  0  0  0  0  0  0  0  0
  -23.3031   23.4102  -34.2975 C   0  0  0  0  0  0  0  0  0  0  0  0
  -22.5809   22.2573  -34.5729 C   0  0  0  0  0  0  0  0  0  0  0  0
  -22.5390   21.4198  -33.4102 N   0  0  0  0  0  0  0  0  0  0  0  0
  -23.4447   21.7240  -32.3096 C   0  0  0  0  0  0  0  0  0  0  0  0
  -22.8564   22.6442  -31.3181 C   0  0  0  0  0  0  0  0  0  0  0  0
  -21.6909   23.0673  -31.4922 O   0  0  0  0  0  0  0  0  0  0  0  0
  -23.5710   23.0414  -30.2086 O   0  0  0  0  0  0  0  0  0  0  0  0
  -21.6741   20.3023  -33.2461 C   0  0  0  0  0  0  0  0  0  0  0  0
  -21.3392   20.1282  -32.0230 O   0  0  0  0  0  0  0  0  0  0  0  0
  -20.4627   18.1417  -34.0261 Cl  0  0  0  0  0  0  0  0  0  0  0  0
  1  2  1  0
  2  3  1  0
  3  4  1  0
  4  5  2  0
  4  6  1  0
  6  7  1  1
  7  8  1  0
  8  9  1  0
  9 10  2  0
 10 11  1  0
 11 12  2  0
 12 13  1  0
 13 14  2  0
  6 15  1  0
 16 15  1  1
 16 17  1  0
 17 18  1  0
 18 19  1  0
 19 20  2  0
 20 21  1  0
 21 22  2  0
 22 23  1  0
 23 24  2  0
 24 25  1  0
 25 26  1  0
 26 27  1  0
 27 28  2  0
 27 29  1  0
 25 30  1  0
 30 31  2  0
 14  9  1  0
 30 16  1  0
 24 19  1  0
M  END
$$$$
