
     RDKit          3D

 27 29  0  0  0  0  0  0  0  0999 V2000
  -18.7429   33.2795  -22.5598 O   0  0  0  0  0  0  0  0  0  0  0  0
  -18.2546   34.4214  -22.4543 C   0  0  0  0  0  0  0  0  0  0  0  0
  -17.4502   34.7406  -21.3753 O   0  0  0  0  0  0  0  0  0  0  0  0
  -18.5189   35.4276  -23.4523 C   0  0  0  0  0  0  0  0  0  0  0  0
  -18.0440   35.2929  -24.7349 C   0  0  0  0  0  0  0  0  0  0  0  0
  -18.3432   36.2463  -25.7084 C   0  0  0  0  0  0  0  0  0  0  0  0
  -19.1201   37.3277  -25.3747 C   0  0  0  0  0  0  0  0  0  0  0  0
  -19.5596   37.4161  -24.1111 N   0  0  0  0  0  0  0  0  0  0  0  0
  -19.2929   36.5170  -23.1391 C   0  0  0  0  0  0  0  0  0  0  0  0
  -19.9261   36.8477  -21.4905 S   0  0  0  0  0  0  0  0  0  0  0  0
  -19.0817   38.2765  -20.8607 C   0  0  0  0  0  0  0  0  0  0  0  0
  -19.8161   39.0664  -19.8126 C   0  0  0  0  0  0  0  0  0  0  0  0
  -18.9290   40.2873  -19.7491 C   0  0  0  0  0  0  0  0  0  0  0  0
  -18.7260   40.9512  -18.7202 O   0  0  0  0  0  0  0  0  0  0  0  0
  -18.4125   40.4908  -21.0544 N   0  0  0  0  0  0  0  0  0  0  0  0
  -17.6257   41.5870  -21.5108 C   0  0  0  0  0  0  0  0  0  0  0  0
  -17.8376   42.1851  -22.7466 C   0  0  0  0  0  0  0  0  0  0  0  0
  -17.0534   43.2408  -23.1529 C   0  0  0  0  0  0  0  0  0  0  0  0
  -16.0224   43.7494  -22.3461 C   0  0  0  0  0  0  0  0  0  0  0  0
  -15.8178   43.1593  -21.1325 C   0  0  0  0  0  0  0  0  0  0  0  0
  -14.7544   43.6281  -20.2229 C   0  0  0  0  0  0  0  0  0  0  0  0
  -13.5922   42.9390  -20.5713 F   0  0  0  0  0  0  0  0  0  0  0  0
  -15.0713   43.4615  -18.8926 F   0  0  0  0  0  0  0  0  0  0  0  0
  -14.4951   44.9746  -20.4262 F   0  0  0  0  0  0  0  0  0  0  0  0
  -16.6092   42.1081  -20.7452 C   0  0  0  0  0  0  0  0  0  0  0  0
  -18.8299   39.3582  -21.8609 C   0  0  0  0  0  0  0  0  0  0  0  0
  -18.9231   39.3873  -23.0889 O   0  0  0  0  0  0  0  0  0  0  0  0
  1  2  2  0
  2  3  1  0
  2  4  1  0
  4  5  2  0
  5  6  1  0
  6  7  2  0
  7  8  1  0
  8  9  2  0
  9 10  1  0
 10 11  1  0
 11 12  1  0
 12 13  1  0
 13 14  2  0
 13 15  1  0
 15 16  1  0
 16 17  2  0
 17 18  1  0
 18 19  2  0
 19 20  1  0
 20 21  1  0
 21 22  1  0
 21 23  1  0
 21 24  1  0
 20 25  2  0
 15 26  1  0
 26 27  2  0
  9  4  1  0
 26 11  1  0
 25 16  1  0
M  END
$$$$
