
     RDKit          3D

 28 30  0  0  0  0  0  0  0  0999 V2000
  -18.5013   34.3535  -22.7381 C   0  0  0  0  0  0  0  0  0  0  0  0
  -19.4444   35.5060  -22.8365 C   0  0  0  0  0  0  0  0  0  0  0  0
  -20.8081   35.2000  -22.2279 C   0  0  0  0  0  0  0  0  0  0  0  0
  -18.8940   36.6633  -22.0889 C   0  0  0  0  0  0  0  0  0  0  0  0
  -18.6740   36.7254  -20.7164 C   0  0  0  0  0  0  0  0  0  0  0  0
  -18.1734   37.9477  -20.4926 N   0  0  0  0  0  0  0  0  0  0  0  0
  -18.0778   38.6276  -21.6482 N   0  0  0  0  0  0  0  0  0  0  0  0
  -17.6359   39.8720  -21.8953 C   0  0  0  0  0  0  0  0  0  0  0  0
  -17.1712   40.6936  -20.8375 N   0  0  0  0  0  0  0  0  0  0  0  0
  -16.4484   41.9130  -21.1008 C   0  0  0  0  0  0  0  0  0  0  0  0
  -17.3370   43.0905  -21.0546 C   0  0  0  0  0  0  0  0  0  0  0  0
  -17.4249   43.8023  -19.8797 C   0  0  0  0  0  0  0  0  0  0  0  0
  -18.2448   44.9241  -19.7690 C   0  0  0  0  0  0  0  0  0  0  0  0
  -18.9723   45.3036  -20.8811 C   0  0  0  0  0  0  0  0  0  0  0  0
  -18.9107   44.6243  -22.0588 C   0  0  0  0  0  0  0  0  0  0  0  0
  -18.0790   43.5088  -22.1272 C   0  0  0  0  0  0  0  0  0  0  0  0
  -17.6405   40.3472  -23.2012 C   0  0  0  0  0  0  0  0  0  0  0  0
  -18.0870   39.5758  -24.2508 C   0  0  0  0  0  0  0  0  0  0  0  0
  -18.1359   39.9842  -25.5877 N   0  0  0  0  0  0  0  0  0  0  0  0
  -18.7744   39.3398  -26.6858 C   0  0  0  0  0  0  0  0  0  0  0  0
  -20.2724   39.3194  -26.6488 C   0  0  0  0  0  0  0  0  0  0  0  0
  -20.8558   38.6393  -27.8770 C   0  0  0  0  0  0  0  0  0  0  0  0
  -22.3424   38.8286  -27.8700 C   0  0  0  0  0  0  0  0  0  0  0  0
  -23.1037   37.5537  -27.6871 C   0  0  0  0  0  0  0  0  0  0  0  0
  -24.2722   37.7341  -26.7216 C   0  0  0  0  0  0  0  0  0  0  0  0
  -24.9959   36.4811  -26.6441 N   0  0  0  0  0  0  0  0  0  0  0  0
  -18.5154   38.3283  -23.9036 N   0  0  0  0  0  0  0  0  0  0  0  0
  -18.5130   37.8673  -22.6529 C   0  0  0  0  0  0  0  0  0  0  0  0
  1  2  1  0
  2  3  1  0
  2  4  1  0
  4  5  1  0
  5  6  2  0
  6  7  1  0
  7  8  1  0
  8  9  1  0
  9 10  1  0
 10 11  1  0
 11 12  2  0
 12 13  1  0
 13 14  2  0
 14 15  1  0
 15 16  2  0
  8 17  2  0
 17 18  1  0
 18 19  1  0
 19 20  1  0
 20 21  1  0
 21 22  1  0
 22 23  1  0
 23 24  1  0
 24 25  1  0
 25 26  1  0
 18 27  2  0
 27 28  1  0
 28  4  2  0
 28  7  1  0
 16 11  1  0
M  END
$$$$
