
     RDKit          3D

 29 33  0  0  0  0  0  0  0  0999 V2000
  -21.7215   14.3473  -33.1204 F   0  0  0  0  0  0  0  0  0  0  0  0
  -20.5933   14.9634  -32.5704 C   0  0  0  0  0  0  0  0  0  0  0  0
  -20.6518   14.9772  -31.2211 F   0  0  0  0  0  0  0  0  0  0  0  0
  -19.5486   14.0736  -32.8948 F   0  0  0  0  0  0  0  0  0  0  0  0
  -20.3074   16.2632  -33.2139 C   0  0  0  0  0  0  0  0  0  0  0  0
  -19.0289   16.7685  -33.2560 C   0  0  0  0  0  0  0  0  0  0  0  0
  -17.8764   16.1376  -32.7403 N   0  0  0  0  0  0  0  0  0  0  0  0
  -16.8779   15.4916  -33.5493 C   0  0  0  0  0  0  0  0  0  0  0  0
  -16.5438   14.1446  -32.9526 C   0  0  0  0  0  0  0  0  0  0  0  0
  -15.9843   14.2928  -31.5733 C   0  0  0  0  0  0  0  0  0  0  0  0
  -14.5806   13.8823  -31.4574 C   0  0  0  0  0  0  0  0  0  0  0  0
  -14.0510   12.7773  -32.0915 C   0  0  0  0  0  0  0  0  0  0  0  0
  -12.7204   12.4327  -31.9499 C   0  0  0  0  0  0  0  0  0  0  0  0
  -11.8671   13.1767  -31.1708 C   0  0  0  0  0  0  0  0  0  0  0  0
  -12.3840   14.2893  -30.5275 C   0  0  0  0  0  0  0  0  0  0  0  0
  -13.7188   14.6113  -30.6864 C   0  0  0  0  0  0  0  0  0  0  0  0
  -16.2285   15.6981  -31.0905 C   0  0  0  0  0  0  0  0  0  0  0  0
  -17.6624   16.1290  -31.3029 C   0  0  0  0  0  0  0  0  0  0  0  0
  -18.8684   18.0136  -33.8789 C   0  0  0  0  0  0  0  0  0  0  0  0
  -19.9438   18.6778  -34.4132 C   0  0  0  0  0  0  0  0  0  0  0  0
  -21.1986   18.1757  -34.3692 N   0  0  0  0  0  0  0  0  0  0  0  0
  -22.3825   18.6430  -34.8203 C   0  0  0  0  0  0  0  0  0  0  0  0
  -22.5627   19.9277  -35.5241 C   0  0  0  0  0  0  0  0  0  0  0  0
  -22.0400   19.8487  -36.9581 C   0  0  0  0  0  0  0  0  0  0  0  0
  -22.8978   20.4153  -38.0473 C   0  0  0  0  0  0  0  0  0  0  0  0
  -21.6551   21.1312  -37.6552 C   0  0  0  0  0  0  0  0  0  0  0  0
  -23.2828   17.7109  -34.4899 N   0  0  0  0  0  0  0  0  0  0  0  0
  -22.6614   16.7038  -33.8547 N   0  0  0  0  0  0  0  0  0  0  0  0
  -21.3576   16.9933  -33.7786 C   0  0  0  0  0  0  0  0  0  0  0  0
  1  2  1  0
  2  3  1  0
  2  4  1  0
  2  5  1  0
  5  6  2  0
  6  7  1  0
  7  8  1  0
  8  9  1  0
  9 10  1  0
 10 11  1  0
 11 12  2  0
 12 13  1  0
 13 14  2  0
 14 15  1  0
 15 16  2  0
 10 17  1  0
 17 18  1  0
  6 19  1  0
 19 20  2  0
 20 21  1  0
 21 22  1  0
 22 23  1  0
 23 24  1  0
 24 25  1  0
 25 26  1  0
 22 27  2  0
 27 28  1  0
 28 29  2  0
 29  5  1  0
 18  7  1  0
 29 21  1  0
 16 11  1  0
 26 24  1  0
M  END
$$$$
