
     RDKit          3D

  7  7  0  0  0  0  0  0  0  0999 V2000
  -17.0631   36.2377  -21.2899 O   0  0  0  0  0  0  0  0  0  0  0  0
  -17.7487   36.7384  -22.3894 C   0  0  0  0  0  0  0  0  0  0  0  0
  -17.9330   38.2207  -22.2897 C   0  0  0  0  0  0  0  0  0  0  0  0
  -17.3684   39.0753  -21.3480 C   0  0  0  0  0  0  0  0  0  0  0  0
  -17.8088   40.3091  -21.6433 N   0  0  0  0  0  0  0  0  0  0  0  0
  -18.6169   40.2859  -22.7139 C   0  0  0  0  0  0  0  0  0  0  0  0
  -18.6798   38.9969  -23.0947 N   0  0  0  0  0  0  0  0  0  0  0  0
  1  2  1  0
  2  3  1  0
  3  4  2  0
  4  5  1  0
  5  6  1  0
  6  7  2  0
  7  3  1  0
M  END
$$$$
