
     RDKit          3D

 15 15  0  0  0  0  0  0  0  0999 V2000
  -22.3803   31.7410  -20.5400 C   0  0  0  0  0  0  0  0  0  0  0  0
  -21.1827   32.5990  -20.2148 C   0  0  0  0  0  0  0  0  0  0  0  0
  -20.9370   33.4392  -21.3240 O   0  0  0  0  0  0  0  0  0  0  0  0
  -19.9170   33.1269  -22.1805 C   0  0  0  0  0  0  0  0  0  0  0  0
  -19.5902   31.9244  -22.3233 O   0  0  0  0  0  0  0  0  0  0  0  0
  -19.1798   34.1490  -22.9453 C   0  0  2  0  0  0  0  0  0  0  0  0
  -19.2389   33.8576  -24.3202 O   0  0  0  0  0  0  0  0  0  0  0  0
  -17.7719   34.3582  -22.5330 C   0  0  0  0  0  0  0  0  0  0  0  0
  -16.9709   35.3389  -23.3115 C   0  0  0  0  0  0  0  0  0  0  0  0
  -17.3370   36.7467  -23.0932 C   0  0  0  0  0  0  0  0  0  0  0  0
  -16.7399   37.4504  -22.0409 C   0  0  0  0  0  0  0  0  0  0  0  0
  -17.0359   38.7632  -21.7721 C   0  0  0  0  0  0  0  0  0  0  0  0
  -17.9482   39.4287  -22.5517 C   0  0  0  0  0  0  0  0  0  0  0  0
  -18.5491   38.7772  -23.5836 C   0  0  0  0  0  0  0  0  0  0  0  0
  -18.2390   37.4357  -23.8489 C   0  0  0  0  0  0  0  0  0  0  0  0
  1  2  1  0
  2  3  1  0
  3  4  1  0
  4  5  2  0
  4  6  1  0
  6  7  1  6
  6  8  1  0
  8  9  1  0
  9 10  1  0
 10 11  2  0
 11 12  1  0
 12 13  2  0
 13 14  1  0
 14 15  2  0
 15 10  1  0
M  END
$$$$
