
     RDKit          3D

 38 41  0  0  0  0  0  0  0  0999 V2000
  -22.7112   22.0303  -36.5688 C   0  0  0  0  0  0  0  0  0  0  0  0
  -22.3367   22.0741  -37.9869 C   0  0  0  0  0  0  0  0  0  0  0  0
  -21.8642   20.8745  -38.5538 C   0  0  0  0  0  0  0  0  0  0  0  0
  -21.4857   20.7718  -39.8698 C   0  0  0  0  0  0  0  0  0  0  0  0
  -21.0150   19.6167  -40.4902 N   0  0  0  0  0  0  0  0  0  0  0  0
  -20.1046   18.6995  -39.9423 C   0  0  0  0  0  0  0  0  0  0  0  0
  -20.0733   17.4182  -40.4533 N   0  0  0  0  0  0  0  0  0  0  0  0
  -19.2419   16.4833  -39.9952 C   0  0  0  0  0  0  0  0  0  0  0  0
  -18.3619   16.7524  -38.9771 C   0  0  0  0  0  0  0  0  0  0  0  0
  -17.2640   15.5363  -38.3644 Cl  0  0  0  0  0  0  0  0  0  0  0  0
  -18.3743   18.0401  -38.4441 C   0  0  0  0  0  0  0  0  0  0  0  0
  -17.5003   18.3945  -37.3887 N   0  0  0  0  0  0  0  0  0  0  0  0
  -17.6830   19.4742  -36.4846 C   0  0  0  0  0  0  0  0  0  0  0  0
  -18.1420   20.6773  -37.0279 C   0  0  0  0  0  0  0  0  0  0  0  0
  -18.3869   21.7457  -36.2109 C   0  0  0  0  0  0  0  0  0  0  0  0
  -18.1807   21.6344  -34.8529 C   0  0  0  0  0  0  0  0  0  0  0  0
  -17.7320   20.4622  -34.3016 C   0  0  0  0  0  0  0  0  0  0  0  0
  -17.4754   19.3522  -35.1226 C   0  0  0  0  0  0  0  0  0  0  0  0
  -16.9846   17.8631  -34.3757 S   0  0  0  0  0  6  0  0  0  0  0  0
  -17.1658   17.9150  -32.8701 O   0  0  0  0  0  0  0  0  0  0  0  0
  -17.6530   16.6959  -34.9891 O   0  0  0  0  0  0  0  0  0  0  0  0
  -15.2303   17.6386  -34.6417 C   0  0  0  0  0  0  0  0  0  0  0  0
  -14.8183   18.5484  -35.8019 C   0  0  0  0  0  0  0  0  0  0  0  0
  -14.8847   16.2278  -35.0135 C   0  0  0  0  0  0  0  0  0  0  0  0
  -19.2399   18.9183  -38.9612 N   0  0  0  0  0  0  0  0  0  0  0  0
  -21.5917   21.9470  -40.6507 C   0  0  0  0  0  0  0  0  0  0  0  0
  -21.2255   21.8838  -41.9618 O   0  0  0  0  0  0  0  0  0  0  0  0
  -19.9948   21.9336  -42.5717 C   0  0  0  0  0  0  0  0  0  0  0  0
  -19.4012   23.3400  -42.5957 C   0  0  0  0  0  0  0  0  0  0  0  0
  -20.0472   21.3633  -43.9841 C   0  0  0  0  0  0  0  0  0  0  0  0
  -22.0524   23.1039  -40.0844 C   0  0  0  0  0  0  0  0  0  0  0  0
  -22.4312   23.2058  -38.7677 C   0  0  0  0  0  0  0  0  0  0  0  0
  -22.9203   24.4387  -38.1669 C   0  0  0  0  0  0  0  0  0  0  0  0
  -22.3109   25.7025  -38.6659 C   0  0  0  0  0  0  0  0  0  0  0  0
  -23.0765   26.8286  -37.9570 C   0  0  0  0  0  0  0  0  0  0  0  0
  -24.3759   26.9013  -38.5859 N   0  0  0  0  0  0  0  0  0  0  0  0
  -24.7559   25.6818  -39.2453 C   0  0  0  0  0  0  0  0  0  0  0  0
  -24.4164   24.5174  -38.3565 C   0  0  0  0  0  0  0  0  0  0  0  0
  1  2  1  0
  2  3  2  0
  3  4  1  0
  4  5  1  0
  5  6  1  0
  6  7  2  0
  7  8  1  0
  8  9  2  0
  9 10  1  0
  9 11  1  0
 11 12  1  0
 12 13  1  0
 13 14  2  0
 14 15  1  0
 15 16  2  0
 16 17  1  0
 17 18  2  0
 18 19  1  0
 19 20  2  0
 19 21  2  0
 19 22  1  0
 22 23  1  0
 22 24  1  0
 11 25  2  0
  4 26  2  0
 26 27  1  0
 27 28  1  0
 28 29  1  0
 28 30  1  0
 26 31  1  0
 31 32  2  0
 32 33  1  0
 33 34  1  0
 34 35  1  0
 35 36  1  0
 36 37  1  0
 37 38  1  0
 32  2  1  0
 38 33  1  0
 25  6  1  0
 18 13  1  0
M  END
$$$$
