
     RDKit          3D

 34 38  0  0  0  0  0  0  0  0999 V2000
  -18.9466    3.1115  -33.6212 C   0  0  0  0  0  0  0  0  0  0  0  0
  -17.6238    2.4494  -33.5377 N   0  0  0  0  0  0  0  0  0  0  0  0
  -17.5755    1.1851  -32.9719 C   0  0  0  0  0  0  0  0  0  0  0  0
  -18.6875    0.7826  -32.4166 O   0  0  0  0  0  0  0  0  0  0  0  0
  -16.4516    0.3063  -32.9373 C   0  0  0  0  0  0  0  0  0  0  0  0
  -16.6621   -1.0266  -33.2681 N   0  0  0  0  0  0  0  0  0  0  0  0
  -15.5792   -1.7094  -33.2308 N   0  0  0  0  0  0  0  0  0  0  0  0
  -15.4361   -3.1242  -33.5173 C   0  0  0  0  0  0  0  0  0  0  0  0
  -14.5993   -0.8719  -32.8770 C   0  0  0  0  0  0  0  0  0  0  0  0
  -15.1059    0.3978  -32.6831 C   0  0  0  0  0  0  0  0  0  0  0  0
  -14.2723    1.5360  -32.2669 C   0  0  0  0  0  0  0  0  0  0  0  0
  -14.5342    2.6912  -33.2028 C   0  0  0  0  0  0  0  0  0  0  0  0
  -14.6294    1.9870  -30.8389 C   0  0  0  0  0  0  0  0  0  0  0  0
  -12.7962    1.3022  -32.2690 C   0  0  0  0  0  0  0  0  0  0  0  0
  -12.3626   -0.0875  -32.4261 C   0  0  0  0  0  0  0  0  0  0  0  0
  -11.0153   -0.3756  -32.2749 C   0  0  0  0  0  0  0  0  0  0  0  0
  -10.5440   -1.6272  -32.4343 N   0  0  0  0  0  0  0  0  0  0  0  0
  -11.3628   -2.6641  -32.7492 C   0  0  0  0  0  0  0  0  0  0  0  0
  -10.8395   -3.9859  -32.9120 N   0  0  0  0  0  0  0  0  0  0  0  0
  -11.6981   -5.1276  -32.9145 C   0  0  0  0  0  0  0  0  0  0  0  0
  -12.9058   -5.1360  -33.5710 C   0  0  0  0  0  0  0  0  0  0  0  0
  -13.7365   -6.2358  -33.5820 C   0  0  0  0  0  0  0  0  0  0  0  0
  -13.3878   -7.4134  -32.9170 C   0  0  0  0  0  0  0  0  0  0  0  0
  -14.1914   -8.5604  -32.8865 N   0  0  0  0  0  0  0  0  0  0  0  0
  -15.0269   -8.8922  -34.0052 C   0  0  0  0  0  0  0  0  0  0  0  0
  -16.1945   -9.7010  -33.4190 C   0  0  0  0  0  0  0  0  0  0  0  0
  -15.7490  -10.9499  -32.8539 N   0  0  0  0  0  0  0  0  0  0  0  0
  -15.7797  -12.0406  -33.7977 C   0  0  0  0  0  0  0  0  0  0  0  0
  -14.4972  -10.8562  -32.1460 C   0  0  0  0  0  0  0  0  0  0  0  0
  -14.1898   -9.4266  -31.7414 C   0  0  0  0  0  0  0  0  0  0  0  0
  -12.1741   -7.3830  -32.2656 C   0  0  0  0  0  0  0  0  0  0  0  0
  -11.3344   -6.2923  -32.2463 C   0  0  0  0  0  0  0  0  0  0  0  0
  -12.6630   -2.3825  -32.8939 N   0  0  0  0  0  0  0  0  0  0  0  0
  -13.1925   -1.1309  -32.7434 C   0  0  0  0  0  0  0  0  0  0  0  0
  1  2  1  0
  2  3  1  0
  3  4  2  0
  3  5  1  0
  5  6  2  0
  6  7  1  0
  7  8  1  0
  7  9  1  0
  9 10  2  0
 10 11  1  0
 11 12  1  0
 11 13  1  0
 11 14  1  0
 14 15  1  0
 15 16  2  0
 16 17  1  0
 17 18  2  0
 18 19  1  0
 19 20  1  0
 20 21  2  0
 21 22  1  0
 22 23  2  0
 23 24  1  0
 24 25  1  0
 25 26  1  0
 26 27  1  0
 27 28  1  0
 27 29  1  0
 29 30  1  0
 23 31  1  0
 31 32  2  0
 18 33  1  0
 33 34  2  0
 10  5  1  0
 34 15  1  0
 34  9  1  0
 32 20  1  0
 30 24  1  0
M  END
$$$$
