
     RDKit          3D

 24 27  0  0  0  0  0  0  0  0999 V2000
  -19.8506   35.3214  -22.0294 C   0  0  0  0  0  0  0  0  0  0  0  0
  -19.4495   36.7330  -21.7798 C   0  0  0  0  0  0  0  0  0  0  0  0
  -19.5452   37.1316  -20.6338 O   0  0  0  0  0  0  0  0  0  0  0  0
  -18.9701   37.5534  -22.9023 C   0  0  0  0  0  0  0  0  0  0  0  0
  -18.0561   36.8673  -23.6869 O   0  0  0  0  0  0  0  0  0  0  0  0
  -20.1901   37.9129  -23.7501 C   0  0  0  0  0  0  0  0  0  0  0  0
  -20.4016   39.3857  -23.5324 C   0  0  0  0  0  0  0  0  0  0  0  0
  -19.5988   39.7292  -22.2772 C   0  0  0  0  0  0  0  0  0  0  0  0
  -19.4041   41.1893  -22.2389 C   0  0  0  0  0  0  0  0  0  0  0  0
  -19.1597   41.6668  -20.8175 C   0  0  0  0  0  0  0  0  0  0  0  0
  -19.1701   43.1780  -20.7679 C   0  0  0  0  0  0  0  0  0  0  0  0
  -19.1027   43.7109  -22.1721 C   0  0  0  0  0  0  0  0  0  0  0  0
  -19.9737   44.6269  -22.5040 C   0  0  0  0  0  0  0  0  0  0  0  0
  -19.9188   45.1479  -23.8531 C   0  0  0  0  0  0  0  0  0  0  0  0
  -20.9126   45.7168  -24.3567 O   0  0  0  0  0  0  0  0  0  0  0  0
  -18.6948   45.0050  -24.6230 C   0  0  0  0  0  0  0  0  0  0  0  0
  -17.8952   43.7826  -24.3564 C   0  0  0  0  0  0  0  0  0  0  0  0
  -18.0573   43.1444  -23.0360 C   0  0  0  0  0  0  0  0  0  0  0  0
  -16.7328   43.3205  -22.2749 C   0  0  0  0  0  0  0  0  0  0  0  0
  -18.3366   41.6664  -23.1891 C   0  0  0  0  0  0  0  0  0  0  0  0
  -17.0794   40.8385  -23.1078 C   0  0  0  0  0  0  0  0  0  0  0  0
  -17.4489   39.4188  -23.4633 C   0  0  0  0  0  0  0  0  0  0  0  0
  -18.3956   38.8897  -22.4374 C   0  0  0  0  0  0  0  0  0  0  0  0
  -17.6371   38.6160  -21.1671 C   0  0  0  0  0  0  0  0  0  0  0  0
  1  2  1  0
  2  3  2  0
  2  4  1  0
  4  5  1  0
  4  6  1  0
  6  7  1  0
  7  8  1  0
  8  9  1  0
  9 10  1  0
 10 11  1  0
 11 12  1  0
 12 13  2  0
 13 14  1  0
 14 15  2  0
 14 16  1  0
 16 17  1  0
 17 18  1  0
 18 19  1  0
 18 20  1  0
 20 21  1  0
 21 22  1  0
 22 23  1  0
 23 24  1  0
 23  4  1  0
 23  8  1  0
 20  9  1  0
 18 12  1  0
M  END
$$$$
