
     RDKit          3D

 35 38  0  0  0  0  0  0  0  0999 V2000
  -31.0611   14.8414  -28.0966 Cl  0  0  0  0  0  0  0  0  0  0  0  0
  -29.5366   21.1786  -24.3669 N   0  0  0  0  0  0  0  0  0  0  0  0
  -29.7145   20.3905  -25.5121 C   0  0  0  0  0  0  0  0  0  0  0  0
  -29.6197   19.0471  -25.5185 N   0  0  0  0  0  0  0  0  0  0  0  0
  -29.7791   18.3075  -26.4976 C   0  0  0  0  0  0  0  0  0  0  0  0
  -29.7543   16.8942  -26.3477 N   0  0  0  0  0  0  0  0  0  0  0  0
  -30.8900   16.1850  -26.9481 C   0  0  0  0  0  0  0  0  0  0  0  0
  -30.4490   15.4911  -28.1877 C   0  0  1  0  0  0  0  0  0  0  0  0
  -29.2602   14.6220  -27.7931 C   0  0  0  0  0  0  0  0  0  0  0  0
  -29.6860   13.6327  -26.7530 C   0  0  0  0  0  0  0  0  0  0  0  0
  -30.8183   12.8885  -27.3498 C   0  0  2  0  0  0  0  0  0  0  0  0
  -30.2041   11.7815  -28.2914 C   0  0  0  0  0  0  0  0  0  0  0  0
  -31.3839   11.0854  -28.4704 N   0  0  0  0  0  0  0  0  0  0  0  0
  -31.2498    9.4499  -28.1496 S   0  0  0  0  0  6  0  0  0  0  0  0
  -29.8579    9.2943  -27.4847 O   0  0  0  0  0  0  0  0  0  0  0  0
  -32.1676    9.4896  -26.8118 O   0  0  0  0  0  0  0  0  0  0  0  0
  -31.6572    8.1487  -29.1355 C   0  0  0  0  0  0  0  0  0  0  0  0
  -30.7232    7.1479  -29.3690 C   0  0  0  0  0  0  0  0  0  0  0  0
  -30.8390    6.4965  -30.5709 C   0  0  0  0  0  0  0  0  0  0  0  0
  -31.7864    6.8259  -31.4863 C   0  0  0  0  0  0  0  0  0  0  0  0
  -32.7106    7.7628  -31.2250 C   0  0  0  0  0  0  0  0  0  0  0  0
  -33.5871    8.2613  -32.2165 C   0  0  0  0  0  0  0  0  0  0  0  0
  -34.3645    9.3047  -31.8782 C   0  0  0  0  0  0  0  0  0  0  0  0
  -34.4494    9.9281  -30.7089 C   0  0  0  0  0  0  0  0  0  0  0  0
  -33.5661    9.4351  -29.7293 C   0  0  0  0  0  0  0  0  0  0  0  0
  -32.7069    8.4170  -30.0336 C   0  0  0  0  0  0  0  0  0  0  0  0
  -31.9859   13.5663  -27.7186 C   0  0  0  0  0  0  0  0  0  0  0  0
  -31.6378   14.6834  -28.6914 C   0  0  0  0  0  0  0  0  0  0  0  0
  -30.1453   18.7799  -27.7369 N   0  0  0  0  0  0  0  0  0  0  0  0
  -30.2725   20.1907  -27.8241 C   0  0  0  0  0  0  0  0  0  0  0  0
  -30.5868   20.7041  -29.0188 C   0  0  0  0  0  0  0  0  0  0  0  0
  -30.4861   22.0542  -29.2193 C   0  0  0  0  0  0  0  0  0  0  0  0
  -30.0892   22.8666  -28.1464 C   0  0  0  0  0  0  0  0  0  0  0  0
  -29.8638   22.3204  -26.9164 C   0  0  0  0  0  0  0  0  0  0  0  0
  -30.0015   20.9271  -26.7142 C   0  0  0  0  0  0  0  0  0  0  0  0
  2  3  1  0
  3  4  2  0
  4  5  1  0
  5  6  1  0
  6  7  1  0
  8  7  1  1
  8  9  1  0
  9 10  1  0
 10 11  1  0
 11 12  1  6
 12 13  1  0
 13 14  1  0
 14 15  2  0
 14 16  2  0
 14 17  1  0
 17 18  2  0
 18 19  1  0
 19 20  2  0
 20 21  1  0
 21 22  2  0
 22 23  1  0
 23 24  2  0
 24 25  1  0
 25 26  2  0
 11 27  1  0
 27 28  1  0
  5 29  2  0
 29 30  1  0
 30 31  2  0
 31 32  1  0
 32 33  2  0
 33 34  1  0
 34 35  2  0
 35  3  1  0
 28  8  1  0
 35 30  1  0
 26 17  1  0
 26 21  1  0
M  END
$$$$
