
     RDKit          3D

 26 30  0  0  0  0  0  0  0  0999 V2000
  -18.5040   38.7849  -20.6042 C   0  0  0  0  0  0  0  0  0  0  0  0
  -18.6371   38.6550  -22.0735 C   0  0  0  0  0  0  0  0  0  0  0  0
  -18.4124   39.6608  -22.9998 C   0  0  0  0  0  0  0  0  0  0  0  0
  -18.0057   41.0385  -22.7591 C   0  0  0  0  0  0  0  0  0  0  0  0
  -18.6497   42.0697  -23.4068 C   0  0  0  0  0  0  0  0  0  0  0  0
  -18.2722   43.3909  -23.1870 C   0  0  0  0  0  0  0  0  0  0  0  0
  -17.2411   43.6641  -22.3096 C   0  0  0  0  0  0  0  0  0  0  0  0
  -16.5819   42.6380  -21.6490 C   0  0  0  0  0  0  0  0  0  0  0  0
  -16.9803   41.3412  -21.8891 C   0  0  0  0  0  0  0  0  0  0  0  0
  -15.5350   43.2152  -20.7831 C   0  0  0  0  0  0  0  0  0  0  0  0
  -15.6279   44.6399  -20.9825 N   0  0  0  0  0  0  0  0  0  0  0  0
  -14.7921   45.6135  -20.3338 C   0  0  0  0  0  0  0  0  0  0  0  0
  -13.3110   45.3690  -20.2582 C   0  0  0  0  0  0  0  0  0  0  0  0
  -14.1344   45.2705  -19.0229 C   0  0  0  0  0  0  0  0  0  0  0  0
  -16.6582   44.9361  -21.9065 C   0  0  0  0  0  0  0  0  0  0  0  0
  -16.9969   46.0814  -22.2972 O   0  0  0  0  0  0  0  0  0  0  0  0
  -18.6404   39.1321  -24.1909 N   0  0  0  0  0  0  0  0  0  0  0  0
  -18.9871   37.8691  -24.0141 N   0  0  0  0  0  0  0  0  0  0  0  0
  -18.9936   37.5502  -22.7321 N   0  0  0  0  0  0  0  0  0  0  0  0
  -19.3190   36.2745  -22.1748 C   0  0  0  0  0  0  0  0  0  0  0  0
  -20.6409   35.9069  -22.0567 C   0  0  0  0  0  0  0  0  0  0  0  0
  -20.8921   34.6611  -21.5101 C   0  0  0  0  0  0  0  0  0  0  0  0
  -19.8843   33.8162  -21.0987 C   0  0  0  0  0  0  0  0  0  0  0  0
  -18.6008   34.1946  -21.2230 N   0  0  0  0  0  0  0  0  0  0  0  0
  -18.3381   35.3883  -21.7460 C   0  0  0  0  0  0  0  0  0  0  0  0
  -17.0233   35.7456  -21.8598 F   0  0  0  0  0  0  0  0  0  0  0  0
  1  2  1  0
  2  3  2  0
  3  4  1  0
  4  5  2  0
  5  6  1  0
  6  7  2  0
  7  8  1  0
  8  9  2  0
  8 10  1  0
 10 11  1  0
 11 12  1  0
 12 13  1  0
 13 14  1  0
 11 15  1  0
 15 16  2  0
  3 17  1  0
 17 18  2  0
 18 19  1  0
 19 20  1  0
 20 21  2  0
 21 22  1  0
 22 23  2  0
 23 24  1  0
 24 25  2  0
 25 26  1  0
 19  2  1  0
 25 20  1  0
  9  4  1  0
 14 12  1  0
 15  7  1  0
M  END
$$$$
