
     RDKit          3D

 43 43  0  0  0  0  0  0  0  0999 V2000
  -19.8165   19.7308  -37.9122 C   0  0  0  0  0  0  0  0  0  0  0  0
  -19.7919   20.0142  -39.2598 C   0  0  0  0  0  0  0  0  0  0  0  0
  -20.0351   18.9138  -40.2021 C   0  0  0  0  0  0  0  0  0  0  0  0
  -18.9802   18.5963  -41.1112 N   0  0  0  0  0  0  0  0  0  0  0  0
  -18.0719   19.6482  -41.5361 C   0  0  0  0  0  0  0  0  0  0  0  0
  -18.5036   20.4713  -42.5095 C   0  0  0  0  0  0  0  0  0  0  0  0
  -19.7975   20.3710  -43.0629 O   0  0  0  0  0  0  0  0  0  0  0  0
  -17.6278   21.4062  -42.9342 C   0  0  0  0  0  0  0  0  0  0  0  0
  -16.3113   21.5258  -42.3835 C   0  0  0  0  0  0  0  0  0  0  0  0
  -15.8714   20.6916  -41.3800 C   0  0  0  0  0  0  0  0  0  0  0  0
  -14.5379   20.8259  -40.7874 O   0  0  0  0  0  0  0  0  0  0  0  0
  -16.7516   19.7193  -40.9387 C   0  0  0  0  0  0  0  0  0  0  0  0
  -16.6913   18.5280  -40.0577 C   0  0  0  0  0  0  0  0  0  0  0  0
  -15.6266   18.2631  -39.0843 C   0  0  1  0  0  0  0  0  0  0  0  0
  -16.2184   17.8992  -37.6932 C   0  0  0  0  0  0  0  0  0  0  0  0
  -14.7921   17.0481  -39.5260 C   0  0  0  0  0  0  0  0  0  0  0  0
  -13.2923   17.3859  -39.4211 C   0  0  2  0  0  0  0  0  0  0  0  0
  -13.0564   18.7149  -39.2148 O   0  0  0  0  0  0  0  0  0  0  0  0
  -12.6560   18.9192  -37.8920 C   0  0  0  0  0  0  0  0  0  0  0  0
  -12.6230   16.6849  -40.5222 C   0  0  2  0  0  0  0  0  0  0  0  0
  -11.9300   15.5225  -40.0674 O   0  0  0  0  0  0  0  0  0  0  0  0
  -11.6201   17.4336  -41.3543 C   0  0  1  0  0  0  0  0  0  0  0  0
  -10.5513   17.9080  -40.3153 C   0  0  0  0  0  0  0  0  0  0  0  0
  -10.9529   16.5088  -42.3557 C   0  0  0  0  0  0  0  0  0  0  0  0
  -10.9142   16.2210  -43.5992 C   0  0  0  0  0  0  0  0  0  0  0  0
  -10.0363   15.1159  -44.2764 C   0  0  0  0  0  0  0  0  0  0  0  0
  -11.5637   16.7890  -44.8476 C   0  0  2  0  0  0  0  0  0  0  0  0
  -10.8094   17.9703  -45.2216 O   0  0  0  0  0  0  0  0  0  0  0  0
  -10.0810   18.0676  -46.3795 C   0  0  0  0  0  0  0  0  0  0  0  0
   -9.3673   19.2645  -46.6386 N   0  0  0  0  0  0  0  0  0  0  0  0
  -10.0742   17.0887  -47.1683 O   0  0  0  0  0  0  0  0  0  0  0  0
  -12.9582   17.0231  -45.0291 C   0  0  1  0  0  0  0  0  0  0  0  0
  -13.4896   15.9704  -45.7907 O   0  0  0  0  0  0  0  0  0  0  0  0
  -14.1657   16.1864  -46.9065 C   0  0  0  0  0  0  0  0  0  0  0  0
  -13.8867   17.0773  -43.8820 C   0  0  0  0  0  0  0  0  0  0  0  0
  -14.3247   18.1921  -43.3211 C   0  0  0  0  0  0  0  0  0  0  0  0
  -14.0112   19.5410  -43.6610 C   0  0  0  0  0  0  0  0  0  0  0  0
  -13.7483   20.7459  -43.9618 C   0  0  0  0  0  0  0  0  0  0  0  0
  -12.2441   21.1016  -44.3063 C   0  0  0  0  0  0  0  0  0  0  0  0
  -14.3734   22.1076  -44.0102 C   0  0  0  0  0  0  0  0  0  0  0  0
  -13.9119   23.0540  -44.7098 O   0  0  0  0  0  0  0  0  0  0  0  0
  -15.5865   22.4795  -43.2485 N   0  0  0  0  0  0  0  0  0  0  0  0
  -14.9290   18.5145  -41.7240 Cl  0  0  0  0  0  0  0  0  0  0  0  0
  1  2  2  0
  2  3  1  0
  3  4  1  0
  4  5  1  0
  5  6  2  0
  6  7  1  0
  6  8  1  0
  8  9  2  0
  9 10  1  0
 10 11  1  0
 10 12  2  0
 12 13  1  0
 13 14  1  0
 14 15  1  1
 14 16  1  0
 16 17  1  0
 17 18  1  6
 18 19  1  0
 17 20  1  0
 20 21  1  1
 20 22  1  0
 22 23  1  1
 22 24  1  0
 24 25  2  0
 25 26  1  0
 25 27  1  0
 27 28  1  1
 28 29  1  0
 29 30  1  0
 29 31  2  0
 27 32  1  0
 32 33  1  6
 33 34  1  0
 32 35  1  0
 35 36  2  0
 36 37  1  0
 37 38  2  0
 38 39  1  0
 38 40  1  0
 40 41  2  0
 40 42  1  0
 12  5  1  0
 42  9  1  0
M  END
$$$$
