
     RDKit          3D

 13 14  0  0  0  0  0  0  0  0999 V2000
  -20.6439   37.6830  -23.4531 C   0  0  0  0  0  0  0  0  0  0  0  0
  -19.5057   36.9770  -22.7787 C   0  0  0  0  0  0  0  0  0  0  0  0
  -19.0671   35.8036  -22.9852 N   0  0  0  0  0  0  0  0  0  0  0  0
  -17.9794   35.4671  -22.1658 N   0  0  0  0  0  0  0  0  0  0  0  0
  -17.2869   34.2239  -22.1764 C   0  0  0  0  0  0  0  0  0  0  0  0
  -18.0290   33.0563  -22.3274 C   0  0  0  0  0  0  0  0  0  0  0  0
  -17.4045   31.8341  -22.3436 C   0  0  0  0  0  0  0  0  0  0  0  0
  -16.0413   31.7403  -22.2116 C   0  0  0  0  0  0  0  0  0  0  0  0
  -15.3125   32.8992  -22.0625 C   0  0  0  0  0  0  0  0  0  0  0  0
  -15.9449   34.1362  -22.0462 C   0  0  0  0  0  0  0  0  0  0  0  0
  -17.7243   36.5923  -21.3507 C   0  0  0  0  0  0  0  0  0  0  0  0
  -16.8157   36.7245  -20.4525 O   0  0  0  0  0  0  0  0  0  0  0  0
  -18.7152   37.6239  -21.7220 C   0  0  0  0  0  0  0  0  0  0  0  0
  1  2  1  0
  2  3  2  0
  3  4  1  0
  4  5  1  0
  5  6  2  0
  6  7  1  0
  7  8  2  0
  8  9  1  0
  9 10  2  0
  4 11  1  0
 11 12  2  0
 11 13  1  0
 13  2  1  0
 10  5  1  0
M  END
$$$$
