
     RDKit          3D

 10 10  0  0  0  0  0  0  0  0999 V2000
  -16.3911   13.5431  -30.1849 O   0  0  0  0  0  0  0  0  0  0  0  0
  -15.6161   14.1061  -29.3955 C   0  0  0  0  0  0  0  0  0  0  0  0
  -14.2973   13.5396  -29.1335 C   0  0  0  0  0  0  0  0  0  0  0  0
  -14.1305   12.5299  -28.3128 C   0  0  0  0  0  0  0  0  0  0  0  0
  -12.8083   12.0758  -27.9283 C   0  0  0  0  0  0  0  0  0  0  0  0
  -12.5854   10.6843  -27.9338 C   0  0  0  0  0  0  0  0  0  0  0  0
  -11.3619   10.2127  -27.5807 C   0  0  0  0  0  0  0  0  0  0  0  0
  -10.3520   11.0818  -27.2219 C   0  0  0  0  0  0  0  0  0  0  0  0
  -10.5770   12.4363  -27.2190 C   0  0  0  0  0  0  0  0  0  0  0  0
  -11.8061   12.9503  -27.5715 C   0  0  0  0  0  0  0  0  0  0  0  0
  1  2  2  0
  2  3  1  0
  3  4  2  0
  4  5  1  0
  5  6  2  0
  6  7  1  0
  7  8  2  0
  8  9  1  0
  9 10  2  0
 10  5  1  0
M  END
$$$$
