
     RDKit          3D

 26 28  0  0  0  0  0  0  0  0999 V2000
    4.2952   23.0697  -20.3332 O   0  0  0  0  0  0  0  0  0  0  0  0
    3.1752   23.5606  -19.9244 C   0  0  0  0  0  0  0  0  0  0  0  0
    2.4010   22.6975  -19.0293 C   0  0  0  0  0  0  0  0  0  0  0  0
    2.4103   21.2434  -19.4540 C   0  0  0  0  0  0  0  0  0  0  0  0
    3.7162   20.6175  -19.0705 C   0  0  0  0  0  0  0  0  0  0  0  0
    3.4548   19.2431  -18.6095 N   0  0  0  0  0  0  0  0  0  0  0  0
    3.2578   18.3887  -19.7793 C   0  0  0  0  0  0  0  0  0  0  0  0
    1.9564   17.6787  -19.7673 C   0  0  0  0  0  0  0  0  0  0  0  0
    1.7695   16.9403  -18.4841 C   0  0  0  0  0  0  0  0  0  0  0  0
    2.7043   15.8866  -18.3968 O   0  0  0  0  0  0  0  0  0  0  0  0
    0.4198   16.2863  -18.4098 C   0  0  0  0  0  0  0  0  0  0  0  0
   -0.7328   16.9998  -18.6446 C   0  0  0  0  0  0  0  0  0  0  0  0
   -1.9873   16.4222  -18.5722 C   0  0  0  0  0  0  0  0  0  0  0  0
   -2.1269   15.0868  -18.2568 C   0  0  0  0  0  0  0  0  0  0  0  0
   -3.7325   14.3609  -18.1672 Cl  0  0  0  0  0  0  0  0  0  0  0  0
   -0.9889   14.3515  -18.0184 C   0  0  0  0  0  0  0  0  0  0  0  0
    0.2688   14.9537  -18.0961 C   0  0  0  0  0  0  0  0  0  0  0  0
    1.9488   17.8798  -17.3148 C   0  0  0  0  0  0  0  0  0  0  0  0
    2.2279   19.2580  -17.8056 C   0  0  0  0  0  0  0  0  0  0  0  0
    2.7872   24.8695  -20.3687 C   0  0  0  0  0  0  0  0  0  0  0  0
    1.5154   25.0713  -20.8956 C   0  0  0  0  0  0  0  0  0  0  0  0
    1.0813   26.2914  -21.3532 C   0  0  0  0  0  0  0  0  0  0  0  0
    1.9175   27.3829  -21.3023 C   0  0  0  0  0  0  0  0  0  0  0  0
    1.5123   28.5967  -21.7454 F   0  0  0  0  0  0  0  0  0  0  0  0
    3.1978   27.2331  -20.7854 C   0  0  0  0  0  0  0  0  0  0  0  0
    3.5976   25.9785  -20.3327 C   0  0  0  0  0  0  0  0  0  0  0  0
  1  2  2  0
  2  3  1  0
  3  4  1  0
  4  5  1  0
  5  6  1  0
  6  7  1  0
  7  8  1  0
  8  9  1  0
  9 10  1  0
  9 11  1  0
 11 12  2  0
 12 13  1  0
 13 14  2  0
 14 15  1  0
 14 16  1  0
 16 17  2  0
  9 18  1  0
 18 19  1  0
  2 20  1  0
 20 21  2  0
 21 22  1  0
 22 23  2  0
 23 24  1  0
 23 25  1  0
 25 26  2  0
 19  6  1  0
 26 20  1  0
 17 11  1  0
M  END
$$$$
