
     RDKit          3D

 31 32  0  0  0  0  0  0  0  0999 V2000
  -20.2304   43.7708  -25.0965 C   0  0  0  0  0  0  0  0  0  0  0  0
  -18.9901   42.9120  -24.9982 C   0  0  0  0  0  0  0  0  0  0  0  0
  -18.0002   43.3953  -26.0454 C   0  0  0  0  0  0  0  0  0  0  0  0
  -18.4085   42.8982  -23.6807 N   0  0  0  0  0  0  0  0  0  0  0  0
  -18.0454   41.8176  -22.9245 C   0  0  0  0  0  0  0  0  0  0  0  0
  -18.2049   40.4690  -23.4069 C   0  0  0  0  0  0  0  0  0  0  0  0
  -17.9009   39.3546  -22.7778 C   0  0  0  0  0  0  0  0  0  0  0  0
  -18.1295   38.0016  -23.4246 C   0  0  1  0  0  0  0  0  0  0  0  0
  -17.0238   37.2369  -23.0327 O   0  0  0  0  0  0  0  0  0  0  0  0
  -19.3773   37.3691  -22.9234 C   0  0  0  0  0  0  0  0  0  0  0  0
  -19.5934   36.0448  -23.5909 C   0  0  1  0  0  0  0  0  0  0  0  0
  -19.7056   36.1971  -24.9928 O   0  0  0  0  0  0  0  0  0  0  0  0
  -18.5395   35.0131  -23.3724 C   0  0  0  0  0  0  0  0  0  0  0  0
  -18.4133   34.7134  -21.9289 C   0  0  0  0  0  0  0  0  0  0  0  0
  -17.4280   33.9416  -21.6342 O   0  0  0  0  0  0  0  0  0  0  0  0
  -19.2362   35.1792  -20.9356 O   0  0  0  0  0  1  0  0  0  0  0  0
  -17.5408   42.2640  -21.7452 C   0  0  0  0  0  0  0  0  0  0  0  0
  -17.0233   41.5071  -20.6073 C   0  0  0  0  0  0  0  0  0  0  0  0
  -17.8733   41.1245  -19.5775 C   0  0  0  0  0  0  0  0  0  0  0  0
  -17.4117   40.4272  -18.4818 C   0  0  0  0  0  0  0  0  0  0  0  0
  -16.0692   40.0759  -18.3616 C   0  0  0  0  0  0  0  0  0  0  0  0
  -15.6485   39.3920  -17.2739 F   0  0  0  0  0  0  0  0  0  0  0  0
  -15.2243   40.4538  -19.3813 C   0  0  0  0  0  0  0  0  0  0  0  0
  -15.6933   41.1505  -20.4728 C   0  0  0  0  0  0  0  0  0  0  0  0
  -17.6048   43.6628  -21.8008 C   0  0  0  0  0  0  0  0  0  0  0  0
  -17.2167   44.5751  -20.8634 C   0  0  0  0  0  0  0  0  0  0  0  0
  -17.3735   45.9315  -21.1398 C   0  0  0  0  0  0  0  0  0  0  0  0
  -17.9145   46.3098  -22.3490 C   0  0  0  0  0  0  0  0  0  0  0  0
  -18.3063   45.3874  -23.2947 C   0  0  0  0  0  0  0  0  0  0  0  0
  -18.1457   44.0331  -23.0090 C   0  0  0  0  0  0  0  0  0  0  0  0
  -18.1110   40.6922  -22.5655 Na  0  0  0  0  0 15  0  0  0  0  0  0
  1  2  1  0
  2  3  1  0
  2  4  1  0
  4  5  1  0
  5  6  1  0
  6  7  2  0
  7  8  1  0
  8  9  1  1
  8 10  1  0
 10 11  1  0
 11 12  1  6
 11 13  1  0
 13 14  1  0
 14 15  2  0
 14 16  1  0
  5 17  2  0
 17 18  1  0
 18 19  2  0
 19 20  1  0
 20 21  2  0
 21 22  1  0
 21 23  1  0
 23 24  2  0
 17 25  1  0
 25 26  2  0
 26 27  1  0
 27 28  2  0
 28 29  1  0
 29 30  2  0
 30  4  1  0
 24 18  1  0
 30 25  1  0
M  CHG  2  16  -1  31   1
M  END
$$$$
