
     RDKit          3D

 32 34  0  0  0  0  0  0  0  0999 V2000
  -34.8035   16.4449  -28.1596 C   0  0  0  0  0  0  0  0  0  0  0  0
  -33.5722   15.9247  -28.8752 C   0  0  0  0  0  0  0  0  0  0  0  0
  -32.4375   16.8498  -28.7977 C   0  0  0  0  0  0  0  0  0  0  0  0
  -31.2517   16.4489  -28.2204 C   0  0  0  0  0  0  0  0  0  0  0  0
  -30.1642   17.2912  -28.1298 C   0  0  0  0  0  0  0  0  0  0  0  0
  -30.2158   18.6002  -28.6233 C   0  0  0  0  0  0  0  0  0  0  0  0
  -29.0658   19.4207  -28.5090 N   0  0  0  0  0  0  0  0  0  0  0  0
  -28.9795   20.7282  -29.0949 C   0  0  0  0  0  0  0  0  0  0  0  0
  -29.5996   21.8369  -28.2956 C   0  0  0  0  0  0  0  0  0  0  0  0
  -28.7149   22.0169  -27.0440 C   0  0  0  0  0  0  0  0  0  0  0  0
  -29.5350   23.1885  -28.9982 C   0  0  0  0  0  0  0  0  0  0  0  0
  -27.7095   18.7448  -27.6376 S   0  0  0  0  0  6  0  0  0  0  0  0
  -28.0898   17.3980  -27.1307 O   0  0  0  0  0  0  0  0  0  0  0  0
  -27.4730   19.6125  -26.4135 O   0  0  0  0  0  0  0  0  0  0  0  0
  -26.2950   18.6874  -28.6448 C   0  0  0  0  0  0  0  0  0  0  0  0
  -26.1472   17.7042  -29.5860 C   0  0  0  0  0  0  0  0  0  0  0  0
  -25.0099   17.6550  -30.3982 C   0  0  0  0  0  0  0  0  0  0  0  0
  -24.0207   18.6048  -30.2555 C   0  0  0  0  0  0  0  0  0  0  0  0
  -22.8962   18.5499  -31.0635 O   0  0  0  0  0  0  0  0  0  0  0  0
  -22.8707   18.9709  -32.3968 C   0  0  0  0  0  0  0  0  0  0  0  0
  -21.4428   19.2270  -32.7892 C   0  0  0  0  0  0  0  0  0  0  0  0
  -20.6092   17.9882  -32.8161 C   0  0  0  0  0  0  0  0  0  0  0  0
  -19.2975   18.1513  -33.5173 C   0  0  0  0  0  0  0  0  0  0  0  0
  -19.3721   18.7754  -34.7385 O   0  0  0  0  0  0  0  0  0  0  0  0
  -19.9756   20.0166  -34.6692 C   0  0  0  0  0  0  0  0  0  0  0  0
  -21.3769   19.9498  -34.1218 C   0  0  0  0  0  0  0  0  0  0  0  0
  -24.1758   19.5846  -29.3124 C   0  0  0  0  0  0  0  0  0  0  0  0
  -23.1400   20.6114  -29.1358 C   0  0  0  0  0  0  0  0  0  0  0  0
  -23.7319   21.6953  -28.4578 O   0  0  0  0  0  0  0  0  0  0  0  0
  -25.3100   19.6446  -28.4930 C   0  0  0  0  0  0  0  0  0  0  0  0
  -31.4037   18.9837  -29.1949 C   0  0  0  0  0  0  0  0  0  0  0  0
  -32.4963   18.1375  -29.2861 C   0  0  0  0  0  0  0  0  0  0  0  0
  1  2  1  0
  2  3  1  0
  3  4  2  0
  4  5  1  0
  5  6  2  0
  6  7  1  0
  7  8  1  0
  8  9  1  0
  9 10  1  0
  9 11  1  0
  7 12  1  0
 12 13  2  0
 12 14  2  0
 12 15  1  0
 15 16  2  0
 16 17  1  0
 17 18  2  0
 18 19  1  0
 19 20  1  0
 20 21  1  0
 21 22  1  0
 22 23  1  0
 23 24  1  0
 24 25  1  0
 25 26  1  0
 18 27  1  0
 27 28  1  0
 28 29  1  0
 27 30  2  0
  6 31  1  0
 31 32  2  0
 32  3  1  0
 30 15  1  0
 26 21  1  0
M  END
$$$$
