
     RDKit          3D

 30 32  0  0  0  0  0  0  0  0999 V2000
  -17.7574   43.9905  -23.7418 C   0  0  0  0  0  0  0  0  0  0  0  0
  -17.3753   43.3893  -22.4420 C   0  0  0  0  0  0  0  0  0  0  0  0
  -16.9706   44.1385  -21.3660 C   0  0  0  0  0  0  0  0  0  0  0  0
  -16.6140   43.6046  -20.1444 C   0  0  0  0  0  0  0  0  0  0  0  0
  -16.6609   42.2432  -19.9767 C   0  0  0  0  0  0  0  0  0  0  0  0
  -17.0703   41.4625  -21.0595 C   0  0  0  0  0  0  0  0  0  0  0  0
  -17.4245   41.9990  -22.2753 C   0  0  0  0  0  0  0  0  0  0  0  0
  -17.8751   41.2150  -23.4482 C   0  0  0  0  0  0  0  0  0  0  0  0
  -17.7110   39.7782  -23.2551 C   0  0  0  0  0  0  0  0  0  0  0  0
  -16.6604   39.3240  -22.7722 O   0  0  0  0  0  0  0  0  0  0  0  0
  -18.8394   38.9223  -23.6545 C   0  0  0  0  0  0  0  0  0  0  0  0
  -20.3446   39.4766  -24.3898 S   0  0  0  0  0  0  0  0  0  0  0  0
  -21.1017   37.8362  -24.5124 C   0  0  0  0  0  0  0  0  0  0  0  0
  -20.1335   37.0312  -23.9817 C   0  0  0  0  0  0  0  0  0  0  0  0
  -18.9849   37.5430  -23.5400 C   0  0  0  0  0  0  0  0  0  0  0  0
  -17.6647   36.5961  -22.8307 S   0  0  0  0  0  6  0  0  0  0  0  0
  -16.3920   36.7674  -23.6435 O   0  0  0  0  0  0  0  0  0  0  0  0
  -17.3281   37.2117  -21.4658 O   0  0  0  0  0  0  0  0  0  0  0  0
  -17.9718   34.9522  -22.6779 N   0  0  0  0  0  2  0  0  0  0  0  0
  -18.9416   34.2877  -21.9365 C   0  0  0  0  0  0  0  0  0  0  0  0
  -20.1298   33.9188  -22.3180 O   0  0  0  0  0  0  0  0  0  0  0  0
  -20.7962   33.3244  -21.4041 N   0  0  0  0  0  0  0  0  0  0  0  0
  -20.0479   33.2513  -20.2749 C   0  0  0  0  0  0  0  0  0  0  0  0
  -20.3918   32.6630  -18.9617 C   0  0  0  0  0  0  0  0  0  0  0  0
  -18.8647   33.8608  -20.6022 C   0  0  0  0  0  0  0  0  0  0  0  0
  -17.4436   34.1190  -19.6184 Cl  0  0  0  0  0  0  0  0  0  0  0  0
  -16.2648   41.9470  -18.6893 O   0  0  0  0  0  0  0  0  0  0  0  0
  -16.1779   43.1345  -17.9321 C   0  0  0  0  0  0  0  0  0  0  0  0
  -16.1821   44.1346  -18.9347 O   0  0  0  0  0  0  0  0  0  0  0  0
  -18.2173   39.0772  -21.7123 Na  0  0  0  0  0 15  0  0  0  0  0  0
  1  2  1  0
  2  3  2  0
  3  4  1  0
  4  5  2  0
  5  6  1  0
  6  7  2  0
  7  8  1  0
  8  9  1  0
  9 10  2  0
  9 11  1  0
 11 12  1  0
 12 13  1  0
 13 14  2  0
 14 15  1  0
 15 16  1  0
 16 17  2  0
 16 18  2  0
 16 19  1  0
 19 20  1  0
 20 21  1  0
 21 22  1  0
 22 23  2  0
 23 24  1  0
 23 25  1  0
 25 26  1  0
  5 27  1  0
 27 28  1  0
 28 29  1  0
  7  2  1  0
 15 11  2  0
 25 20  2  0
 29  4  1  0
M  CHG  2  19  -1  30   1
M  END
$$$$
