
     RDKit          3D

 24 27  0  0  0  0  0  0  0  0999 V2000
  -10.7997   -4.4062  -22.6354 N   0  0  0  0  0  0  0  0  0  0  0  0
  -11.8111   -3.9287  -22.9757 C   0  0  0  0  0  0  0  0  0  0  0  0
  -13.0666   -3.3587  -23.3987 C   0  0  0  0  0  0  0  0  0  0  0  0
  -13.8403   -3.8865  -24.3840 C   0  0  0  0  0  0  0  0  0  0  0  0
  -13.4012   -5.0643  -25.0432 N   0  0  0  0  0  0  0  0  0  0  0  0
  -13.4146   -5.3327  -26.4471 C   0  0  0  0  0  0  0  0  0  0  0  0
  -13.3473   -6.8333  -26.5201 C   0  0  0  0  0  0  0  0  0  0  0  0
  -12.3511   -7.1475  -25.3986 C   0  0  0  0  0  0  0  0  0  0  0  0
  -12.8511   -6.2043  -24.2996 C   0  0  0  0  0  0  0  0  0  0  0  0
  -15.0012   -3.2718  -24.7023 N   0  0  0  0  0  0  0  0  0  0  0  0
  -15.4337   -2.1571  -24.0905 C   0  0  0  0  0  0  0  0  0  0  0  0
  -16.6611   -1.5552  -24.4667 N   0  0  0  0  0  0  0  0  0  0  0  0
  -14.6749   -1.5821  -23.0769 C   0  0  0  0  0  0  0  0  0  0  0  0
  -15.0802   -0.4347  -22.4186 C   0  0  0  0  0  0  0  0  0  0  0  0
  -16.3144    0.1884  -22.7824 N   0  0  0  0  0  0  0  0  0  0  0  0
  -14.2884    0.0578  -21.4495 N   0  0  0  0  0  0  0  0  0  0  0  0
  -13.1215   -0.5025  -21.0821 C   0  0  0  0  0  0  0  0  0  0  0  0
  -12.2990    0.0322  -20.0560 N   0  0  0  0  0  0  0  0  0  0  0  0
  -12.6152    1.2828  -19.3658 C   0  0  0  0  0  0  0  0  0  0  0  0
  -11.5321    1.4759  -18.3435 C   0  0  0  0  0  0  0  0  0  0  0  0
  -10.4058    0.5445  -18.7367 C   0  0  0  0  0  0  0  0  0  0  0  0
  -11.0864   -0.5361  -19.5547 C   0  0  0  0  0  0  0  0  0  0  0  0
  -12.7315   -1.6387  -21.7418 C   0  0  0  0  0  0  0  0  0  0  0  0
  -13.4980   -2.2027  -22.7521 C   0  0  0  0  0  0  0  0  0  0  0  0
  1  2  3  0
  2  3  1  0
  3  4  2  0
  4  5  1  0
  5  6  1  0
  6  7  1  0
  7  8  1  0
  8  9  1  0
  4 10  1  0
 10 11  2  0
 11 12  1  0
 11 13  1  0
 13 14  2  0
 14 15  1  0
 14 16  1  0
 16 17  2  0
 17 18  1  0
 18 19  1  0
 19 20  1  0
 20 21  1  0
 21 22  1  0
 17 23  1  0
 23 24  2  0
 24  3  1  0
  9  5  1  0
 24 13  1  0
 22 18  1  0
M  END
$$$$
