
     RDKit          3D

 16 16  0  0  0  0  0  0  0  0999 V2000
  -17.8910   43.0227  -20.6063 C   0  0  0  0  0  0  0  0  0  0  0  0
  -17.3968   41.7704  -21.2668 C   0  0  0  0  0  0  0  0  0  0  0  0
  -16.4276   42.1724  -22.4081 C   0  0  0  0  0  0  0  0  0  0  0  0
  -18.3235   40.8958  -21.8206 N   0  0  0  0  0  0  0  0  0  0  0  0
  -18.0344   39.8200  -22.6463 C   0  0  0  0  0  0  0  0  0  0  0  0
  -17.8077   38.5296  -21.9603 C   0  0  2  0  0  0  0  0  0  0  0  0
  -16.8079   37.8065  -22.5851 O   0  0  0  0  0  0  0  0  0  0  0  0
  -19.0309   37.6353  -21.9439 C   0  0  0  0  0  0  0  0  0  0  0  0
  -18.9121   36.5737  -21.0299 O   0  0  0  0  0  0  0  0  0  0  0  0
  -19.1921   35.2960  -21.4935 C   0  0  0  0  0  0  0  0  0  0  0  0
  -20.4981   34.8704  -21.7004 C   0  0  0  0  0  0  0  0  0  0  0  0
  -20.8038   33.6062  -22.1607 C   0  0  0  0  0  0  0  0  0  0  0  0
  -19.7853   32.6943  -22.4394 C   0  0  0  0  0  0  0  0  0  0  0  0
  -20.0752   31.4190  -22.9032 O   0  0  0  0  0  0  0  0  0  0  0  0
  -18.4907   33.1043  -22.2386 C   0  0  0  0  0  0  0  0  0  0  0  0
  -18.1989   34.3668  -21.7793 C   0  0  0  0  0  0  0  0  0  0  0  0
  1  2  1  0
  2  3  1  0
  2  4  1  0
  4  5  1  0
  5  6  1  0
  6  7  1  6
  6  8  1  0
  8  9  1  0
  9 10  1  0
 10 11  2  0
 11 12  1  0
 12 13  2  0
 13 14  1  0
 13 15  1  0
 15 16  2  0
 16 10  1  0
M  END
$$$$
