
     RDKit          3D

 33 37  0  0  0  0  0  0  0  0999 V2000
  -21.1007   36.6894  -21.3946 C   0  0  0  0  0  0  0  0  0  0  0  0
  -19.9928   37.5636  -21.8735 C   0  0  0  0  0  0  0  0  0  0  0  0
  -20.1375   38.3826  -22.9796 C   0  0  0  0  0  0  0  0  0  0  0  0
  -19.1260   39.1936  -23.4330 C   0  0  0  0  0  0  0  0  0  0  0  0
  -17.9287   39.1891  -22.7619 C   0  0  0  0  0  0  0  0  0  0  0  0
  -16.8751   39.9933  -23.1833 O   0  0  0  0  0  0  0  0  0  0  0  0
  -16.4896   41.1220  -22.4491 C   0  0  0  0  0  0  0  0  0  0  0  0
  -15.2347   41.3762  -22.0489 N   0  0  0  0  0  0  0  0  0  0  0  0
  -15.2281   42.5491  -21.3650 C   0  0  0  0  0  0  0  0  0  0  0  0
  -14.2373   43.2831  -20.7385 C   0  0  0  0  0  0  0  0  0  0  0  0
  -14.5116   44.4826  -20.0952 C   0  0  0  0  0  0  0  0  0  0  0  0
  -13.2205   45.3970  -19.3108 Cl  0  0  0  0  0  0  0  0  0  0  0  0
  -15.8206   44.9095  -20.1096 C   0  0  0  0  0  0  0  0  0  0  0  0
  -16.1661   46.1583  -19.4445 C   0  0  0  0  0  0  0  0  0  0  0  0
  -16.0206   46.2836  -18.0789 C   0  0  0  0  0  0  0  0  0  0  0  0
  -16.3342   47.4549  -17.4093 C   0  0  0  0  0  0  0  0  0  0  0  0
  -16.8135   48.5546  -18.1161 C   0  0  0  0  0  0  0  0  0  0  0  0
  -17.1531   49.8004  -17.4416 C   0  0  0  0  0  0  0  0  0  0  0  0
  -17.8143   50.8204  -18.0822 C   0  0  0  0  0  0  0  0  0  0  0  0
  -18.1285   52.0073  -17.4091 C   0  0  0  0  0  0  0  0  0  0  0  0
  -17.7803   52.1772  -16.0874 C   0  0  0  0  0  0  0  0  0  0  0  0
  -17.1163   51.1544  -15.4418 C   0  0  0  0  0  0  0  0  0  0  0  0
  -16.8079   49.9771  -16.1196 C   0  0  0  0  0  0  0  0  0  0  0  0
  -16.9442   48.3882  -19.4781 C   0  0  0  0  0  0  0  0  0  0  0  0
  -16.6374   47.2309  -20.1628 C   0  0  0  0  0  0  0  0  0  0  0  0
  -16.8130   44.1751  -20.7369 C   0  0  0  0  0  0  0  0  0  0  0  0
  -16.5387   42.9784  -21.3787 C   0  0  0  0  0  0  0  0  0  0  0  0
  -17.3176   42.1034  -22.0445 N   0  0  0  0  0  0  0  0  0  0  0  0
  -17.7851   38.3754  -21.6630 C   0  0  0  0  0  0  0  0  0  0  0  0
  -18.7955   37.5531  -21.1950 C   0  0  0  0  0  0  0  0  0  0  0  0
  -18.6189   36.7000  -20.0294 C   0  0  0  0  0  0  0  0  0  0  0  0
  -17.8786   36.9609  -19.0597 O   0  0  0  0  0  0  0  0  0  0  0  0
  -19.3262   35.5070  -19.9923 O   0  0  0  0  0  0  0  0  0  0  0  0
  1  2  1  0
  2  3  2  0
  3  4  1  0
  4  5  2  0
  5  6  1  0
  6  7  1  0
  7  8  2  0
  8  9  1  0
  9 10  2  0
 10 11  1  0
 11 12  1  0
 11 13  2  0
 13 14  1  0
 14 15  2  0
 15 16  1  0
 16 17  2  0
 17 18  1  0
 18 19  2  0
 19 20  1  0
 20 21  2  0
 21 22  1  0
 22 23  2  0
 17 24  1  0
 24 25  2  0
 13 26  1  0
 26 27  2  0
 27 28  1  0
  5 29  1  0
 29 30  2  0
 30 31  1  0
 31 32  2  0
 31 33  1  0
 30  2  1  0
 28  7  1  0
 27  9  1  0
 25 14  1  0
 23 18  1  0
M  END
$$$$
