
     RDKit          3D

 16 15  0  0  0  0  0  0  0  0999 V2000
    4.5817    8.6510  -26.4427 C   0  0  0  0  0  0  0  0  0  0  0  0
    4.2038    7.4869  -27.3757 C   0  0  0  0  0  0  0  0  0  0  0  0
    5.3766    6.5808  -27.5283 C   0  0  0  0  0  0  0  0  0  0  0  0
    6.5547    7.0788  -28.0875 N   0  0  0  0  0  0  0  0  0  0  0  0
    6.7111    7.3346  -29.4569 C   0  0  1  0  0  0  0  0  0  0  0  0
    5.8160    8.3625  -30.0213 C   0  0  0  0  0  0  0  0  0  0  0  0
    6.3487    8.7675  -31.4109 C   0  0  0  0  0  0  0  0  0  0  0  0
    7.5676    9.6056  -31.1077 C   0  0  0  0  0  0  0  0  0  0  0  0
    7.9851   10.7937  -31.4632 N   0  0  0  0  0  0  0  0  0  0  0  0
    8.9673   11.3555  -31.1829 C   0  0  0  0  0  0  0  0  0  0  0  0
    9.6553   12.6274  -31.4357 N   0  0  0  0  0  0  0  0  0  0  0  0
    9.8086   10.1031  -30.0689 S   0  0  0  0  0  0  0  0  0  0  0  0
    8.4567    8.9283  -30.2553 C   0  0  0  0  0  0  0  0  0  0  0  0
    8.1822    7.5862  -29.7516 C   0  0  0  0  0  0  0  0  0  0  0  0
    7.0082    8.9052  -29.7652 Cl  0  0  0  0  0  0  0  0  0  0  0  0
    7.0089    8.9057  -29.7660 Cl  0  0  0  0  0  0  0  0  0  0  0  0
  1  2  1  0
  2  3  1  0
  3  4  1  0
  5  4  1  1
  5  6  1  0
  6  7  1  0
  7  8  1  0
  8  9  1  0
  9 10  2  0
 10 11  1  0
 10 12  1  0
 12 13  1  0
 13 14  1  0
 14  5  1  0
 13  8  2  0
M  END
$$$$
