
     RDKit          3D

 26 29  0  0  0  0  0  0  0  0999 V2000
  -20.2833   38.2791  -21.8115 C   0  0  0  0  0  0  0  0  0  0  0  0
  -18.9668   38.5660  -22.4305 C   0  0  2  0  0  0  0  0  0  0  0  0
  -17.9122   38.9861  -21.4768 C   0  0  0  0  0  0  0  0  0  0  0  0
  -18.2497   40.3660  -20.9438 C   0  0  2  0  0  0  0  0  0  0  0  0
  -19.4175   40.2622  -20.2141 O   0  0  0  0  0  0  0  0  0  0  0  0
  -18.2923   41.3007  -22.0833 C   0  0  1  0  0  0  0  0  0  0  0  0
  -19.3949   40.9357  -23.0612 C   0  0  1  0  0  0  0  0  0  0  0  0
  -19.5288   41.9223  -24.1553 C   0  0  0  0  0  0  0  0  0  0  0  0
  -18.4706   42.9592  -24.2731 C   0  0  0  0  0  0  0  0  0  0  0  0
  -17.9421   43.4584  -22.9999 C   0  0  0  0  0  0  0  0  0  0  0  0
  -17.1302   44.4966  -23.0141 C   0  0  0  0  0  0  0  0  0  0  0  0
  -16.5839   45.0221  -21.7701 C   0  0  0  0  0  0  0  0  0  0  0  0
  -15.5763   45.7679  -21.7633 O   0  0  0  0  0  0  0  0  0  0  0  0
  -17.2731   44.6353  -20.5154 C   0  0  0  0  0  0  0  0  0  0  0  0
  -17.4767   43.1294  -20.5883 C   0  0  0  0  0  0  0  0  0  0  0  0
  -18.3576   42.7561  -21.7564 C   0  0  2  0  0  0  0  0  0  0  0  0
  -19.7510   43.2441  -21.4359 C   0  0  0  0  0  0  0  0  0  0  0  0
  -19.0478   39.5789  -23.5739 C   0  0  2  0  0  0  0  0  0  0  0  0
  -20.0250   38.9247  -24.4700 C   0  0  0  0  0  0  0  0  0  0  0  0
  -19.6146   37.4472  -24.3835 C   0  0  0  0  0  0  0  0  0  0  0  0
  -18.5776   37.3598  -23.2775 C   0  0  1  0  0  0  0  0  0  0  0  0
  -17.3324   37.5760  -23.8855 O   0  0  0  0  0  0  0  0  0  0  0  0
  -18.5919   36.1019  -22.5455 C   0  0  0  0  0  0  0  0  0  0  0  0
  -19.6199   35.4939  -22.3240 O   0  0  0  0  0  0  0  0  0  0  0  0
  -17.3259   35.5184  -22.0410 C   0  0  0  0  0  0  0  0  0  0  0  0
  -17.5025   34.2873  -21.4223 O   0  0  0  0  0  0  0  0  0  0  0  0
  2  1  1  1
  2  3  1  0
  3  4  1  0
  4  5  1  6
  6  4  1  1
  6  7  1  0
  7  8  1  6
  8  9  1  0
  9 10  1  0
 10 11  2  0
 11 12  1  0
 12 13  2  0
 12 14  1  0
 14 15  1  0
 15 16  1  0
 16 17  1  1
  7 18  1  0
 18 19  1  6
 19 20  1  0
 20 21  1  0
 21 22  1  6
 21 23  1  0
 23 24  2  0
 23 25  1  0
 25 26  1  0
 18  2  1  0
 21  2  1  0
 16  6  1  0
 16 10  1  0
M  END
$$$$
