
     RDKit          3D

 19 18  0  0  0  0  0  0  0  0999 V2000
  -15.9727   44.0557  -21.3310 C   0  0  0  0  0  0  0  0  0  0  0  0
  -17.2454   44.2817  -22.1109 C   0  0  0  0  0  0  0  0  0  0  0  0
  -17.3064   45.7371  -22.5483 C   0  0  0  0  0  0  0  0  0  0  0  0
  -17.3360   43.4807  -23.2834 N   0  0  0  0  0  0  0  0  0  0  0  0
  -17.3192   42.0622  -23.0692 C   0  0  0  0  0  0  0  0  0  0  0  0
  -18.5972   41.6612  -22.3746 C   0  0  0  0  0  0  0  0  0  0  0  0
  -19.6645   42.0229  -23.1963 O   0  0  0  0  0  0  0  0  0  0  0  0
  -18.6410   40.1959  -22.0974 C   0  0  0  0  0  0  0  0  0  0  0  0
  -18.8619   39.2829  -23.1124 C   0  0  0  0  0  0  0  0  0  0  0  0
  -18.8994   37.9264  -22.8407 C   0  0  0  0  0  0  0  0  0  0  0  0
  -18.7223   37.4231  -21.5714 C   0  0  0  0  0  0  0  0  0  0  0  0
  -18.7603   36.0051  -21.3057 N   0  0  0  0  0  0  0  0  0  0  0  0
  -17.9663   34.8633  -22.2847 S   0  0  0  0  0  6  0  0  0  0  0  0
  -16.2088   35.1015  -22.3238 C   0  0  0  0  0  0  0  0  0  0  0  0
  -18.2842   33.4829  -21.7842 O   0  0  0  0  0  0  0  0  0  0  0  0
  -18.5371   34.9549  -23.6884 O   0  0  0  0  0  0  0  0  0  0  0  0
  -18.5026   38.3360  -20.5613 C   0  0  0  0  0  0  0  0  0  0  0  0
  -18.4644   39.6911  -20.8280 C   0  0  0  0  0  0  0  0  0  0  0  0
  -17.7274   39.6418  -22.1287 Cl  0  0  0  0  0  0  0  0  0  0  0  0
  1  2  1  0
  2  3  1  0
  2  4  1  0
  4  5  1  0
  5  6  1  0
  6  7  1  0
  6  8  1  0
  8  9  2  0
  9 10  1  0
 10 11  2  0
 11 12  1  0
 12 13  1  0
 13 14  1  0
 13 15  2  0
 13 16  2  0
 11 17  1  0
 17 18  2  0
 18  8  1  0
M  END
$$$$
