
     RDKit          3D

 30 33  0  0  0  0  0  0  0  0999 V2000
  -18.6942   48.3728  -19.0792 O   0  0  0  0  0  0  0  0  0  0  0  0
  -19.0443   47.2520  -18.6379 C   0  0  0  0  0  0  0  0  0  0  0  0
  -19.4230   47.1691  -17.3287 C   0  0  0  0  0  0  0  0  0  0  0  0
  -19.4186   48.3485  -16.4762 C   0  0  0  0  0  0  0  0  0  0  0  0
  -18.6579   49.4507  -16.8174 C   0  0  0  0  0  0  0  0  0  0  0  0
  -18.6347   50.5898  -16.0225 C   0  0  0  0  0  0  0  0  0  0  0  0
  -19.3719   50.6611  -14.8617 C   0  0  0  0  0  0  0  0  0  0  0  0
  -19.3863   51.7718  -14.0309 O   0  0  0  0  0  0  0  0  0  0  0  0
  -20.1322   49.5724  -14.5111 C   0  0  0  0  0  0  0  0  0  0  0  0
  -20.1460   48.4485  -15.3092 C   0  0  0  0  0  0  0  0  0  0  0  0
  -19.8105   45.9174  -16.8484 C   0  0  0  0  0  0  0  0  0  0  0  0
  -19.8096   44.8623  -17.6286 O   0  0  0  0  0  0  0  0  0  0  0  0
  -19.4544   44.8980  -18.8873 C   0  0  0  0  0  0  0  0  0  0  0  0
  -19.4707   43.7424  -19.6796 C   0  0  0  0  0  0  0  0  0  0  0  0
  -19.0967   43.7818  -21.0035 C   0  0  0  0  0  0  0  0  0  0  0  0
  -19.0919   42.6872  -21.8268 O   0  0  0  0  0  0  0  0  0  0  0  0
  -18.6376   41.3954  -21.5300 C   0  0  2  0  0  0  0  0  0  0  0  0
  -17.5261   41.1555  -22.3339 O   0  0  0  0  0  0  0  0  0  0  0  0
  -17.0313   39.8734  -22.1923 C   0  0  2  0  0  0  0  0  0  0  0  0
  -15.7768   39.7546  -23.0226 C   0  0  0  0  0  0  0  0  0  0  0  0
  -16.0481   39.9164  -24.3779 O   0  0  0  0  0  0  0  0  0  0  0  0
  -18.0344   38.8639  -22.7539 C   0  0  1  0  0  0  0  0  0  0  0  0
  -17.5138   37.5911  -22.7283 O   0  0  0  0  0  0  0  0  0  0  0  0
  -19.2754   38.9942  -21.8614 C   0  0  2  0  0  0  0  0  0  0  0  0
  -20.3139   38.1984  -22.3398 O   0  0  0  0  0  0  0  0  0  0  0  0
  -19.7255   40.4325  -21.9802 C   0  0  1  0  0  0  0  0  0  0  0  0
  -20.8848   40.5814  -21.2588 O   0  0  0  0  0  0  0  0  0  0  0  0
  -18.7073   45.0203  -21.5005 C   0  0  0  0  0  0  0  0  0  0  0  0
  -18.6924   46.1541  -20.7194 C   0  0  0  0  0  0  0  0  0  0  0  0
  -19.0626   46.1102  -19.4125 C   0  0  0  0  0  0  0  0  0  0  0  0
  1  2  2  0
  2  3  1  0
  3  4  1  0
  4  5  2  0
  5  6  1  0
  6  7  2  0
  7  8  1  0
  7  9  1  0
  9 10  2  0
  3 11  2  0
 11 12  1  0
 12 13  1  0
 13 14  2  0
 14 15  1  0
 15 16  1  0
 17 16  1  6
 17 18  1  0
 18 19  1  0
 19 20  1  6
 20 21  1  0
 19 22  1  0
 22 23  1  1
 22 24  1  0
 24 25  1  6
 24 26  1  0
 26 27  1  1
 15 28  2  0
 28 29  1  0
 29 30  2  0
 30  2  1  0
 10  4  1  0
 30 13  1  0
 26 17  1  0
M  END
$$$$
