
     RDKit          3D

 31 36  0  0  0  0  0  0  0  0999 V2000
  -28.2713   20.6228  -28.4272 C   0  0  0  0  0  0  0  0  0  0  0  0
  -28.4572   19.3103  -28.0696 C   0  0  0  0  0  0  0  0  0  0  0  0
  -28.8218   18.9257  -26.7962 C   0  0  0  0  0  0  0  0  0  0  0  0
  -29.0193   17.5326  -26.4118 C   0  0  0  0  0  0  0  0  0  0  0  0
  -28.0928   16.5075  -26.3298 C   0  0  0  0  0  0  0  0  0  0  0  0
  -28.7240   15.3871  -25.9338 N   0  0  0  0  0  0  0  0  0  0  0  0
  -30.0203   15.6440  -25.7558 N   0  0  0  0  0  0  0  0  0  0  0  0
  -31.0882   14.9130  -25.3743 C   0  0  0  0  0  0  0  0  0  0  0  0
  -32.3559   15.4255  -25.2644 C   0  0  0  0  0  0  0  0  0  0  0  0
  -33.4470   14.5770  -24.8497 C   0  0  0  0  0  0  0  0  0  0  0  0
  -33.2768   13.6406  -23.8574 C   0  0  0  0  0  0  0  0  0  0  0  0
  -34.2809   12.8071  -23.4222 C   0  0  0  0  0  0  0  0  0  0  0  0
  -35.5257   12.8935  -23.9903 C   0  0  0  0  0  0  0  0  0  0  0  0
  -36.5777   12.0427  -23.5569 N   0  0  0  0  0  0  0  0  0  0  0  0
  -36.2557   10.9220  -22.7215 C   0  0  0  0  0  0  0  0  0  0  0  0
  -37.3581    9.9450  -22.5024 C   0  0  0  0  0  0  0  0  0  0  0  0
  -38.4183   10.0208  -23.4620 N   0  0  0  0  0  0  0  0  0  0  0  0
  -38.9406   11.3759  -23.4817 C   0  0  0  0  0  0  0  0  0  0  0  0
  -37.9293   12.3570  -23.9869 C   0  0  0  0  0  0  0  0  0  0  0  0
  -35.7424   13.8293  -25.0000 C   0  0  0  0  0  0  0  0  0  0  0  0
  -34.7167   14.6492  -25.4134 C   0  0  0  0  0  0  0  0  0  0  0  0
  -32.5263   16.7742  -25.5677 C   0  0  0  0  0  0  0  0  0  0  0  0
  -31.4588   17.5041  -25.9490 N   0  0  0  0  0  0  0  0  0  0  0  0
  -30.2232   16.9562  -26.0440 C   0  0  0  0  0  0  0  0  0  0  0  0
  -29.0024   19.9119  -25.8575 C   0  0  0  0  0  0  0  0  0  0  0  0
  -29.3676   19.5729  -24.5719 C   0  0  0  0  0  0  0  0  0  0  0  0
  -29.5409   20.5872  -23.6558 C   0  0  0  0  0  0  0  0  0  0  0  0
  -29.3508   21.9143  -24.0247 C   0  0  0  0  0  0  0  0  0  0  0  0
  -28.9942   22.2100  -25.2892 N   0  0  0  0  0  0  0  0  0  0  0  0
  -28.8195   21.2345  -26.2012 C   0  0  0  0  0  0  0  0  0  0  0  0
  -28.4563   21.6030  -27.4737 C   0  0  0  0  0  0  0  0  0  0  0  0
  1  2  2  0
  2  3  1  0
  3  4  1  0
  4  5  1  0
  5  6  2  0
  6  7  1  0
  7  8  1  0
  8  9  2  0
  9 10  1  0
 10 11  2  0
 11 12  1  0
 12 13  2  0
 13 14  1  0
 14 15  1  0
 15 16  1  0
 16 17  1  0
 17 18  1  0
 18 19  1  0
 13 20  1  0
 20 21  2  0
  9 22  1  0
 22 23  2  0
 23 24  1  0
  3 25  2  0
 25 26  1  0
 26 27  2  0
 27 28  1  0
 28 29  2  0
 29 30  1  0
 30 31  2  0
 31  1  1  0
 24  4  2  0
 30 25  1  0
 24  7  1  0
 21 10  1  0
 19 14  1  0
M  END
$$$$
