
     RDKit          3D

  8  8  0  0  0  0  0  0  0  0999 V2000
  -18.1478   40.1097  -22.9000 C   0  0  0  0  0  0  0  0  0  0  0  0
  -17.9835   38.6266  -22.7867 C   0  0  0  0  0  0  0  0  0  0  0  0
  -16.8330   38.0550  -22.2767 C   0  0  0  0  0  0  0  0  0  0  0  0
  -16.6937   36.6713  -22.1770 C   0  0  0  0  0  0  0  0  0  0  0  0
  -17.7120   35.8962  -22.5914 N   0  0  0  0  0  0  0  0  0  0  0  0
  -18.8554   36.3804  -23.0959 C   0  0  0  0  0  0  0  0  0  0  0  0
  -19.9189   35.5642  -23.5285 N   0  0  0  0  0  0  0  0  0  0  0  0
  -18.9784   37.7625  -23.1885 C   0  0  0  0  0  0  0  0  0  0  0  0
  1  2  1  0
  2  3  2  0
  3  4  1  0
  4  5  2  0
  5  6  1  0
  6  7  1  0
  6  8  2  0
  8  2  1  0
M  END
$$$$
