
     RDKit          3D

 21 23  0  0  0  0  0  0  0  0999 V2000
  -13.5904   44.1289  -20.6325 C   0  0  0  0  0  0  0  0  0  0  0  0
  -14.9347   43.9481  -21.2273 C   0  0  0  0  0  0  0  0  0  0  0  0
  -15.5522   45.0187  -21.8261 C   0  0  0  0  0  0  0  0  0  0  0  0
  -16.8036   44.8544  -22.3811 C   0  0  0  0  0  0  0  0  0  0  0  0
  -17.5138   45.9808  -23.0403 C   0  0  0  0  0  0  0  0  0  0  0  0
  -17.4025   43.5997  -22.3149 C   0  0  0  0  0  0  0  0  0  0  0  0
  -16.7594   42.5157  -21.7003 C   0  0  0  0  0  0  0  0  0  0  0  0
  -17.3869   41.2416  -21.6481 N   0  0  0  0  0  0  0  0  0  0  0  0
  -17.9348   40.5747  -22.7802 C   0  0  0  0  0  0  0  0  0  0  0  0
  -17.6023   40.6372  -23.9671 O   0  0  0  0  0  0  0  0  0  0  0  0
  -19.0574   39.7313  -22.2260 C   0  0  0  0  0  0  0  0  0  0  0  0
  -18.3759   39.2440  -20.9524 C   0  0  0  0  0  0  0  0  0  0  0  0
  -17.2176   37.9146  -21.4334 S   0  0  0  0  0  0  0  0  0  0  0  0
  -18.1951   36.5588  -22.0327 C   0  0  0  0  0  0  0  0  0  0  0  0
  -18.1569   36.0413  -23.2659 N   0  0  0  0  0  0  0  0  0  0  0  0
  -19.0242   35.0424  -23.3494 N   0  0  0  0  0  0  0  0  0  0  0  0
  -19.6271   34.9097  -22.1700 C   0  0  0  0  0  0  0  0  0  0  0  0
  -19.1063   35.8580  -21.3525 N   0  0  0  0  0  0  0  0  0  0  0  0
  -17.5905   40.4147  -20.4997 C   0  0  0  0  0  0  0  0  0  0  0  0
  -17.2175   40.5788  -19.3392 O   0  0  0  0  0  0  0  0  0  0  0  0
  -15.5332   42.6918  -21.1605 C   0  0  0  0  0  0  0  0  0  0  0  0
  1  2  1  0
  2  3  2  0
  3  4  1  0
  4  5  1  0
  4  6  2  0
  6  7  1  0
  7  8  1  0
  8  9  1  0
  9 10  2  0
  9 11  1  0
 11 12  1  0
 12 13  1  0
 13 14  1  0
 14 15  2  0
 15 16  1  0
 16 17  2  0
 17 18  1  0
 12 19  1  0
 19 20  2  0
  7 21  2  0
 21  2  1  0
 19  8  1  0
 18 14  1  0
M  END
$$$$
