
     RDKit          3D

 26 25  0  0  0  0  0  0  0  0999 V2000
  -18.3794   45.4379  -22.9967 C   0  0  0  0  0  0  0  0  0  0  0  0
  -17.4925   44.2176  -23.1018 C   0  0  0  0  0  0  0  0  0  0  0  0
  -17.5699   43.3738  -21.8430 C   0  0  0  0  0  0  0  0  0  0  0  0
  -17.9482   41.9560  -22.1195 C   0  0  0  0  0  0  0  0  0  0  0  0
  -16.9266   41.3003  -23.0274 C   0  0  0  0  0  0  0  0  0  0  0  0
  -17.2542   39.8475  -23.2737 C   0  0  0  0  0  0  0  0  0  0  0  0
  -18.8619   39.5088  -22.4589 S   0  0  0  0  0  0  0  0  0  0  0  0
  -19.1128   37.7063  -22.4099 C   0  0  0  0  0  0  0  0  0  0  0  0
  -18.8557   37.1399  -23.7825 C   0  0  0  0  0  0  0  0  0  0  0  0
  -18.9519   35.7069  -23.8410 N   0  0  0  0  0  0  0  0  0  0  0  0
  -18.1920   34.8093  -23.0386 C   0  0  0  0  0  0  0  0  0  0  0  0
  -17.3223   35.3121  -22.2826 O   0  0  0  0  0  0  0  0  0  0  0  0
  -18.4461   33.3617  -23.1211 C   0  0  0  0  0  0  0  0  0  0  0  0
  -18.6413   32.6716  -21.8246 C   0  0  0  0  0  0  0  0  0  0  0  0
  -19.9800   32.0412  -21.6058 C   0  0  0  0  0  0  0  0  0  0  0  0
  -19.7619   30.6074  -21.4661 N   0  0  0  0  0  0  0  0  0  0  0  0
  -20.6882   32.5160  -20.4203 C   0  0  0  0  0  0  0  0  0  0  0  0
  -21.6775   33.3128  -20.4331 O   0  0  0  0  0  0  0  0  0  0  0  0
  -20.2897   32.0949  -19.1626 O   0  0  0  0  0  0  0  0  0  0  0  0
  -19.6814   37.8320  -24.7869 C   0  0  0  0  0  0  0  0  0  0  0  0
  -19.4752   37.5741  -26.0009 O   0  0  0  0  0  0  0  0  0  0  0  0
  -20.7015   38.7763  -24.4895 N   0  0  0  0  0  0  0  0  0  0  0  0
  -21.5908   39.2709  -25.4966 C   0  0  0  0  0  0  0  0  0  0  0  0
  -20.9395   40.1950  -26.4554 C   0  0  0  0  0  0  0  0  0  0  0  0
  -21.4849   41.2747  -26.7905 O   0  0  0  0  0  0  0  0  0  0  0  0
  -19.7093   39.8736  -26.9975 O   0  0  0  0  0  0  0  0  0  0  0  0
  1  2  1  0
  2  3  1  0
  3  4  1  0
  4  5  1  0
  5  6  1  0
  6  7  1  0
  7  8  1  0
  8  9  1  0
  9 10  1  0
 10 11  1  0
 11 12  2  0
 11 13  1  0
 13 14  1  0
 14 15  1  0
 15 16  1  0
 15 17  1  0
 17 18  2  0
 17 19  1  0
  9 20  1  0
 20 21  2  0
 20 22  1  0
 22 23  1  0
 23 24  1  0
 24 25  2  0
 24 26  1  0
M  END
$$$$
