
     RDKit          3D

 28 29  0  0  0  0  0  0  0  0999 V2000
  -17.6624   46.4260  -19.3938 C   0  0  0  0  0  0  0  0  0  0  0  0
  -19.0390   45.8001  -19.0808 C   0  0  2  0  0  0  0  0  0  0  0  0
  -19.1556   44.4781  -19.7777 C   0  0  0  0  0  0  0  0  0  0  0  0
  -18.5026   44.3698  -21.1075 C   0  0  1  0  0  0  0  0  0  0  0  0
  -17.2649   43.5131  -21.0095 C   0  0  0  0  0  0  0  0  0  0  0  0
  -17.5650   42.0502  -21.1278 C   0  0  0  0  0  0  0  0  0  0  0  0
  -18.1336   41.3276  -20.1159 C   0  0  0  0  0  0  0  0  0  0  0  0
  -18.3989   39.9542  -20.2535 C   0  0  0  0  0  0  0  0  0  0  0  0
  -18.0762   39.3405  -21.4319 C   0  0  0  0  0  0  0  0  0  0  0  0
  -18.3505   37.8995  -21.5939 C   0  0  0  0  0  0  0  0  0  0  0  0
  -17.3575   37.0706  -22.0489 C   0  0  0  0  0  0  0  0  0  0  0  0
  -17.6186   35.7372  -22.1980 C   0  0  0  0  0  0  0  0  0  0  0  0
  -18.8605   35.2067  -21.9005 C   0  0  0  0  0  0  0  0  0  0  0  0
  -19.8493   36.0632  -21.4420 C   0  0  0  0  0  0  0  0  0  0  0  0
  -19.5843   37.3861  -21.2957 C   0  0  0  0  0  0  0  0  0  0  0  0
  -17.5034   40.0801  -22.4449 C   0  0  0  0  0  0  0  0  0  0  0  0
  -17.2396   41.4131  -22.3265 C   0  0  0  0  0  0  0  0  0  0  0  0
  -19.3321   43.9614  -22.1964 N   0  0  0  0  0  0  0  0  0  0  0  0
  -19.0755   44.3975  -23.5318 C   0  0  0  0  0  0  0  0  0  0  0  0
  -17.8871   44.7044  -23.8084 O   0  0  0  0  0  0  0  0  0  0  0  0
  -20.1566   44.4858  -24.5472 C   0  0  0  0  0  0  0  0  0  0  0  0
  -19.7369   43.6838  -25.7525 C   0  0  0  0  0  0  0  0  0  0  0  0
  -19.5673   42.2415  -25.4338 C   0  0  0  0  0  0  0  0  0  0  0  0
  -19.0564   41.4312  -26.2608 O   0  0  0  0  0  0  0  0  0  0  0  0
  -19.9609   41.7103  -24.2141 O   0  0  0  0  0  0  0  0  0  0  0  0
  -20.0409   46.7836  -19.6448 C   0  0  0  0  0  0  0  0  0  0  0  0
  -19.6549   47.8523  -20.1871 O   0  0  0  0  0  0  0  0  0  0  0  0
  -21.3958   46.5252  -19.5742 O   0  0  0  0  0  0  0  0  0  0  0  0
  2  1  1  6
  2  3  1  0
  4  3  1  1
  4  5  1  0
  5  6  1  0
  6  7  2  0
  7  8  1  0
  8  9  2  0
  9 10  1  0
 10 11  2  0
 11 12  1  0
 12 13  2  0
 13 14  1  0
 14 15  2  0
  9 16  1  0
 16 17  2  0
  4 18  1  0
 18 19  1  0
 19 20  2  0
 19 21  1  0
 21 22  1  0
 22 23  1  0
 23 24  2  0
 23 25  1  0
  2 26  1  0
 26 27  2  0
 26 28  1  0
 17  6  1  0
 15 10  1  0
M  END
$$$$
