
     RDKit          3D

 17 19  0  0  0  0  0  0  0  0999 V2000
  -12.4323   46.1468  -20.3858 N   0  0  0  0  0  0  0  0  0  0  0  0
  -13.3661   45.4821  -20.6074 C   0  0  0  0  0  0  0  0  0  0  0  0
  -14.5320   44.6755  -20.8978 C   0  0  0  0  0  0  0  0  0  0  0  0
  -14.4893   43.2853  -20.8708 C   0  0  0  0  0  0  0  0  0  0  0  0
  -15.5815   42.4980  -21.1425 C   0  0  0  0  0  0  0  0  0  0  0  0
  -16.7725   43.0729  -21.4559 C   0  0  0  0  0  0  0  0  0  0  0  0
  -18.0062   42.3046  -21.7584 C   0  0  1  0  0  0  0  0  0  0  0  0
  -17.9321   41.7967  -23.1602 C   0  0  0  0  0  0  0  0  0  0  0  0
  -18.1643   40.3241  -23.0908 C   0  0  0  0  0  0  0  0  0  0  0  0
  -18.1678   40.0113  -21.6373 C   0  0  0  0  0  0  0  0  0  0  0  0
  -18.2314   38.9385  -20.7587 C   0  0  0  0  0  0  0  0  0  0  0  0
  -18.1791   39.4824  -19.5297 N   0  0  0  0  0  0  0  0  0  0  0  0
  -18.0895   40.7963  -19.6193 C   0  0  0  0  0  0  0  0  0  0  0  0
  -18.0818   41.1279  -20.9179 N   0  0  0  0  0  0  0  0  0  0  0  0
  -16.8478   44.4575  -21.4911 C   0  0  0  0  0  0  0  0  0  0  0  0
  -18.0168   45.1116  -21.7985 F   0  0  0  0  0  0  0  0  0  0  0  0
  -15.7454   45.2431  -21.2165 C   0  0  0  0  0  0  0  0  0  0  0  0
  1  2  3  0
  2  3  1  0
  3  4  2  0
  4  5  1  0
  5  6  2  0
  7  6  1  1
  7  8  1  0
  8  9  1  0
  9 10  1  0
 10 11  2  0
 11 12  1  0
 12 13  2  0
 13 14  1  0
  6 15  1  0
 15 16  1  0
 15 17  2  0
 17  3  1  0
 14  7  1  0
 14 10  1  0
M  END
$$$$
