
     RDKit          3D

 21 24  0  0  0  0  0  0  0  0999 V2000
  -12.4304   46.2397  -19.7404 C   0  0  0  0  0  0  0  0  0  0  0  0
  -13.1713   45.0155  -19.3716 C   0  0  0  0  0  0  0  0  0  0  0  0
  -12.7742   44.3189  -18.2494 C   0  0  0  0  0  0  0  0  0  0  0  0
  -13.4782   43.1952  -17.9375 C   0  0  0  0  0  0  0  0  0  0  0  0
  -14.5545   42.7541  -18.7065 C   0  0  0  0  0  0  0  0  0  0  0  0
  -14.9275   43.4626  -19.8132 C   0  0  0  0  0  0  0  0  0  0  0  0
  -15.9951   43.0725  -20.6218 C   0  0  0  0  0  0  0  0  0  0  0  0
  -16.3292   43.8421  -21.7443 C   0  0  0  0  0  0  0  0  0  0  0  0
  -15.6031   44.9747  -22.0403 C   0  0  0  0  0  0  0  0  0  0  0  0
  -14.5464   45.3912  -21.2696 C   0  0  0  0  0  0  0  0  0  0  0  0
  -14.2303   44.6287  -20.1741 C   0  0  0  0  0  0  0  0  0  0  0  0
  -17.4465   43.4195  -22.5769 C   0  0  0  0  0  0  0  0  0  0  0  0
  -18.1660   42.3412  -22.3271 C   0  0  0  0  0  0  0  0  0  0  0  0
  -17.8708   41.5076  -21.1855 C   0  0  0  0  0  0  0  0  0  0  0  0
  -18.5029   40.4714  -20.8794 O   0  0  0  0  0  0  0  0  0  0  0  0
  -16.7429   41.8827  -20.2948 C   0  0  0  0  0  0  0  0  0  0  0  0
  -16.4934   41.1634  -19.3155 O   0  0  0  0  0  0  0  0  0  0  0  0
  -19.2303   42.1916  -23.3668 C   0  0  1  0  0  0  0  0  0  0  0  0
  -20.5655   41.8597  -22.7348 C   0  0  0  0  0  0  0  0  0  0  0  0
  -19.2814   43.6215  -23.9043 C   0  0  0  0  0  0  0  0  0  0  0  0
  -17.9444   44.0377  -23.7345 O   0  0  0  0  0  0  0  0  0  0  0  0
  1  2  1  0
  2  3  2  0
  3  4  1  0
  4  5  2  0
  5  6  1  0
  6  7  2  0
  7  8  1  0
  8  9  2  0
  9 10  1  0
 10 11  2  0
  8 12  1  0
 12 13  2  0
 13 14  1  0
 14 15  2  0
 14 16  1  0
 16 17  2  0
 13 18  1  0
 18 19  1  1
 18 20  1  0
 20 21  1  0
 11  2  1  0
 21 12  1  0
 11  6  1  0
 16  7  1  0
M  END
$$$$
