
     RDKit          3D

 40 42  0  0  0  0  0  0  0  0999 V2000
  -21.0677   15.2360  -32.2929 C   0  0  0  0  0  0  0  0  0  0  0  0
  -22.2208   15.9121  -31.8496 O   0  0  0  0  0  0  0  0  0  0  0  0
  -23.1476   16.3396  -32.8019 C   0  0  0  0  0  0  0  0  0  0  0  0
  -23.0045   16.1342  -34.1479 C   0  0  0  0  0  0  0  0  0  0  0  0
  -23.9316   16.5673  -35.0792 C   0  0  0  0  0  0  0  0  0  0  0  0
  -25.0470   17.2345  -34.6194 C   0  0  0  0  0  0  0  0  0  0  0  0
  -25.2359   17.4644  -33.2790 C   0  0  0  0  0  0  0  0  0  0  0  0
  -24.3054   17.0272  -32.3775 C   0  0  0  0  0  0  0  0  0  0  0  0
  -24.4030   17.2059  -31.0337 O   0  0  0  0  0  0  0  0  0  0  0  0
  -25.3071   17.7865  -30.2328 C   0  0  0  0  0  0  0  0  0  0  0  0
  -26.3677   17.0187  -29.7472 C   0  0  0  0  0  0  0  0  0  0  0  0
  -26.4953   15.6507  -30.1408 N   0  0  0  0  0  0  0  0  0  0  0  0
  -27.7905   14.6630  -29.5898 S   0  0  0  0  0  6  0  0  0  0  0  0
  -27.6971   13.3353  -30.3270 O   0  0  0  0  0  0  0  0  0  0  0  0
  -29.1166   15.2821  -30.0324 O   0  0  0  0  0  0  0  0  0  0  0  0
  -27.7860   14.4547  -27.8686 C   0  0  0  0  0  0  0  0  0  0  0  0
  -27.0927   13.3996  -27.3197 C   0  0  0  0  0  0  0  0  0  0  0  0
  -27.0538   13.1937  -25.9553 C   0  0  0  0  0  0  0  0  0  0  0  0
  -27.7212   14.0615  -25.1060 C   0  0  0  0  0  0  0  0  0  0  0  0
  -27.6686   13.8228  -23.6348 C   0  0  0  0  0  0  0  0  0  0  0  0
  -26.8560   12.5758  -23.3549 C   0  0  0  0  0  0  0  0  0  0  0  0
  -26.9348   14.9582  -22.9156 C   0  0  0  0  0  0  0  0  0  0  0  0
  -29.0104   13.6788  -22.9998 C   0  0  0  0  0  0  0  0  0  0  0  0
  -28.4101   15.1082  -25.6408 C   0  0  0  0  0  0  0  0  0  0  0  0
  -28.4492   15.3134  -27.0271 C   0  0  0  0  0  0  0  0  0  0  0  0
  -27.2476   17.6315  -28.9409 N   0  0  0  0  0  0  0  0  0  0  0  0
  -27.1553   18.9212  -28.5907 C   0  0  0  0  0  0  0  0  0  0  0  0
  -28.1126   19.5734  -27.7113 C   0  0  0  0  0  0  0  0  0  0  0  0
  -29.1187   18.8800  -27.1885 N   0  0  0  0  0  0  0  0  0  0  0  0
  -30.0232   19.4393  -26.3612 C   0  0  0  0  0  0  0  0  0  0  0  0
  -29.9252   20.7540  -26.0371 C   0  0  0  0  0  0  0  0  0  0  0  0
  -28.8852   21.4788  -26.5767 C   0  0  0  0  0  0  0  0  0  0  0  0
  -27.9957   20.8939  -27.4000 N   0  0  0  0  0  0  0  0  0  0  0  0
  -26.1258   19.6297  -29.0763 N   0  0  0  0  0  0  0  0  0  0  0  0
  -25.1844   19.1269  -29.8895 C   0  0  0  0  0  0  0  0  0  0  0  0
  -24.1385   19.8985  -30.3646 O   0  0  0  0  0  0  0  0  0  0  0  0
  -23.9299   21.2276  -30.0934 C   0  0  0  0  0  0  0  0  0  0  0  0
  -24.9709   22.1997  -30.5326 C   0  0  0  0  0  0  0  0  0  0  0  0
  -26.2269   22.0321  -30.0116 O   0  0  0  0  0  0  0  0  0  0  0  0
  -26.6614   16.9507  -28.3868 O   0  0  0  0  0  0  0  0  0  0  0  0
  1  2  1  0
  2  3  1  0
  3  4  2  0
  4  5  1  0
  5  6  2  0
  6  7  1  0
  7  8  2  0
  8  9  1  0
  9 10  1  0
 10 11  1  0
 11 12  1  0
 12 13  1  0
 13 14  2  0
 13 15  2  0
 13 16  1  0
 16 17  2  0
 17 18  1  0
 18 19  2  0
 19 20  1  0
 20 21  1  0
 20 22  1  0
 20 23  1  0
 19 24  1  0
 24 25  2  0
 11 26  2  0
 26 27  1  0
 27 28  1  0
 28 29  2  0
 29 30  1  0
 30 31  2  0
 31 32  1  0
 32 33  2  0
 27 34  2  0
 34 35  1  0
 35 36  1  0
 36 37  1  0
 37 38  1  0
 38 39  1  0
  8  3  1  0
 35 10  2  0
 25 16  1  0
 33 28  1  0
M  END
$$$$
