
     RDKit          3D

 19 21  0  0  0  0  0  0  0  0999 V2000
  -18.7423   18.7037  -32.6324 O   0  0  0  0  0  0  0  0  0  0  0  0
  -18.1484   17.6121  -32.3916 C   0  0  0  0  0  0  0  0  0  0  0  0
  -18.8831   16.5319  -32.1384 N   0  0  0  0  0  0  0  0  0  0  0  0
  -18.3225   15.3079  -31.8634 C   0  0  0  0  0  0  0  0  0  0  0  0
  -19.1606   14.2460  -31.5631 N   0  0  0  0  0  0  0  0  0  0  0  0
  -20.5422   14.0786  -31.6588 C   0  0  0  0  0  0  0  0  0  0  0  0
  -21.1168   12.8370  -31.7351 C   0  0  0  0  0  0  0  0  0  0  0  0
  -22.5021   12.7736  -31.8182 C   0  0  0  0  0  0  0  0  0  0  0  0
  -23.2906   13.9173  -31.8251 C   0  0  0  0  0  0  0  0  0  0  0  0
  -24.6407   13.8380  -31.8997 F   0  0  0  0  0  0  0  0  0  0  0  0
  -22.7073   15.1716  -31.7490 C   0  0  0  0  0  0  0  0  0  0  0  0
  -21.3400   15.2337  -31.6670 C   0  0  0  0  0  0  0  0  0  0  0  0
  -16.9586   15.2477  -31.8651 C   0  0  0  0  0  0  0  0  0  0  0  0
  -16.1675   16.3708  -32.1291 C   0  0  0  0  0  0  0  0  0  0  0  0
  -14.7879   16.2989  -32.1198 C   0  0  0  0  0  0  0  0  0  0  0  0
  -14.0517   17.4360  -32.3774 C   0  0  0  0  0  0  0  0  0  0  0  0
  -14.6552   18.6540  -32.6451 C   0  0  0  0  0  0  0  0  0  0  0  0
  -16.0269   18.7344  -32.6580 C   0  0  0  0  0  0  0  0  0  0  0  0
  -16.7607   17.5796  -32.3977 C   0  0  0  0  0  0  0  0  0  0  0  0
  1  2  2  0
  2  3  1  0
  3  4  1  0
  4  5  1  0
  5  6  1  0
  6  7  2  0
  7  8  1  0
  8  9  2  0
  9 10  1  0
  9 11  1  0
 11 12  2  0
  4 13  2  0
 13 14  1  0
 14 15  2  0
 15 16  1  0
 16 17  2  0
 17 18  1  0
 18 19  2  0
 19  2  1  0
 12  6  1  0
 19 14  1  0
M  END
$$$$
