
     RDKit          3D

 20 22  0  0  0  0  0  0  0  0999 V2000
   -6.1379    5.8733  -42.5014 C   0  0  0  0  0  0  0  0  0  0  0  0
   -4.7507    5.8427  -41.9678 C   0  0  0  0  0  0  0  0  0  0  0  0
   -4.5021    5.7861  -40.6328 C   0  0  0  0  0  0  0  0  0  0  0  0
   -3.2215    5.7572  -40.1245 C   0  0  0  0  0  0  0  0  0  0  0  0
   -2.1650    5.7872  -41.0098 C   0  0  0  0  0  0  0  0  0  0  0  0
   -0.4659    5.7534  -40.4470 S   0  0  0  0  0  0  0  0  0  0  0  0
   -0.1834    6.9671  -39.1826 C   0  0  0  0  0  0  0  0  0  0  0  0
   -1.1332    7.9115  -38.8283 C   0  0  0  0  0  0  0  0  0  0  0  0
   -0.9118    8.8477  -37.8510 C   0  0  0  0  0  0  0  0  0  0  0  0
    0.2760    8.8799  -37.1821 C   0  0  0  0  0  0  0  0  0  0  0  0
    1.2414    7.9445  -37.5198 C   0  0  0  0  0  0  0  0  0  0  0  0
    2.4214    7.9421  -36.8869 N   0  0  0  0  0  0  0  0  0  0  0  0
    3.3953    7.0584  -37.1725 C   0  0  0  0  0  0  0  0  0  0  0  0
    4.6436    7.0398  -36.5176 N   0  0  0  0  0  0  0  0  0  0  0  0
    3.1629    6.1460  -38.1339 N   0  0  0  0  0  0  0  0  0  0  0  0
    2.0012    6.0777  -38.8218 C   0  0  0  0  0  0  0  0  0  0  0  0
    1.7727    5.1093  -39.8324 N   0  0  0  0  0  0  0  0  0  0  0  0
    1.0116    6.9910  -38.5174 C   0  0  0  0  0  0  0  0  0  0  0  0
   -2.3932    5.8451  -42.3797 C   0  0  0  0  0  0  0  0  0  0  0  0
   -3.6829    5.8720  -42.8393 C   0  0  0  0  0  0  0  0  0  0  0  0
  1  2  1  0
  2  3  2  0
  3  4  1  0
  4  5  2  0
  5  6  1  0
  6  7  1  0
  7  8  2  0
  8  9  1  0
  9 10  2  0
 10 11  1  0
 11 12  2  0
 12 13  1  0
 13 14  1  0
 13 15  2  0
 15 16  1  0
 16 17  1  0
 16 18  2  0
  5 19  1  0
 19 20  2  0
 20  2  1  0
 18  7  1  0
 18 11  1  0
M  END
$$$$
