
     RDKit          3D

 21 21  0  0  0  0  0  0  0  0999 V2000
  -14.7998   -4.3826  -31.2770 C   0  0  0  0  0  0  0  0  0  0  0  0
  -15.7431   -3.3935  -30.5482 C   0  0  0  0  0  0  0  0  0  0  0  0
  -17.0698   -4.0292  -30.4696 C   0  0  0  0  0  0  0  0  0  0  0  0
  -15.1937   -3.2859  -29.1143 C   0  0  0  0  0  0  0  0  0  0  0  0
  -15.6037   -2.1302  -31.2367 C   0  0  0  0  0  0  0  0  0  0  0  0
  -16.6023   -1.4295  -31.8352 C   0  0  0  0  0  0  0  0  0  0  0  0
  -16.3933   -0.2811  -32.5915 C   0  0  0  0  0  0  0  0  0  0  0  0
  -17.5743    0.3453  -33.1852 C   0  0  0  0  0  0  0  0  0  0  0  0
  -18.5684    0.8191  -33.5650 C   0  0  0  0  0  0  0  0  0  0  0  0
  -19.8934    0.0633  -33.7337 C   0  0  0  0  0  0  0  0  0  0  0  0
  -20.8005   -0.4747  -33.8556 N   0  0  0  0  0  0  0  0  0  0  0  0
  -18.6653    2.1669  -34.2292 C   0  0  0  0  0  0  0  0  0  0  0  0
  -18.7338    3.1691  -34.7407 N   0  0  0  0  0  0  0  0  0  0  0  0
  -15.1077    0.1914  -32.7478 C   0  0  0  0  0  0  0  0  0  0  0  0
  -14.0611   -0.4886  -32.1498 C   0  0  0  0  0  0  0  0  0  0  0  0
  -12.6128   -0.0564  -32.2575 C   0  0  0  0  0  0  0  0  0  0  0  0
  -12.0467    0.3213  -30.9080 C   0  0  0  0  0  0  0  0  0  0  0  0
  -11.7317   -1.1010  -32.8763 C   0  0  0  0  0  0  0  0  0  0  0  0
  -12.6114    1.2406  -33.0784 C   0  0  0  0  0  0  0  0  0  0  0  0
  -14.3173   -1.6417  -31.4035 C   0  0  0  0  0  0  0  0  0  0  0  0
  -13.2657   -2.3158  -30.8102 O   0  0  0  0  0  0  0  0  0  0  0  0
  1  2  1  0
  2  3  1  0
  2  4  1  0
  2  5  1  0
  5  6  2  0
  6  7  1  0
  7  8  1  0
  8  9  2  3
  9 10  1  0
 10 11  3  0
  9 12  1  0
 12 13  3  0
  7 14  2  0
 14 15  1  0
 15 16  1  0
 16 17  1  0
 16 18  1  0
 16 19  1  0
 15 20  2  0
 20 21  1  0
 20  5  1  0
M  END
$$$$
