
     RDKit          3D

 18 20  0  0  0  0  0  0  0  0999 V2000
  -17.1924   37.8235  -22.5641 O   0  0  0  0  0  0  0  0  0  0  0  0
  -18.2104   38.4837  -22.8930 C   0  0  0  0  0  0  0  0  0  0  0  0
  -18.1078   39.8525  -23.4275 C   0  0  0  0  0  0  0  0  0  0  0  0
  -17.8231   40.7668  -22.2669 C   0  0  0  0  0  0  0  0  0  0  0  0
  -18.7003   41.5359  -21.5474 C   0  0  0  0  0  0  0  0  0  0  0  0
  -18.2385   42.2788  -20.5524 C   0  0  0  0  0  0  0  0  0  0  0  0
  -16.8834   42.2634  -20.2602 C   0  0  0  0  0  0  0  0  0  0  0  0
  -16.2753   41.0996  -21.5139 S   0  0  0  0  0  0  0  0  0  0  0  0
  -19.4825   37.8711  -22.7356 N   0  0  0  0  0  0  0  0  0  0  0  0
  -19.6703   36.4844  -22.4890 C   0  0  0  0  0  0  0  0  0  0  0  0
  -20.5074   35.6287  -22.3941 N   0  0  0  0  0  0  0  0  0  0  0  0
  -20.3614   34.3611  -22.1433 C   0  0  0  0  0  0  0  0  0  0  0  0
  -21.3368   33.3739  -22.0347 C   0  0  0  0  0  0  0  0  0  0  0  0
  -20.9994   32.0862  -21.7649 C   0  0  0  0  0  0  0  0  0  0  0  0
  -19.7215   31.6475  -21.5805 C   0  0  0  0  0  0  0  0  0  0  0  0
  -18.7281   32.6124  -21.6835 C   0  0  0  0  0  0  0  0  0  0  0  0
  -19.0486   33.9258  -21.9568 C   0  0  0  0  0  0  0  0  0  0  0  0
  -18.1382   35.4227  -22.1667 S   0  0  0  0  0  0  0  0  0  0  0  0
  1  2  2  0
  2  3  1  0
  3  4  1  0
  4  5  2  0
  5  6  1  0
  6  7  2  0
  7  8  1  0
  2  9  1  0
  9 10  1  0
 10 11  2  0
 11 12  1  0
 12 13  2  0
 13 14  1  0
 14 15  2  0
 15 16  1  0
 16 17  2  0
 17 18  1  0
  8  4  1  0
 18 10  1  0
 17 12  1  0
M  END
$$$$
