
     RDKit          3D

 11 11  0  0  0  0  0  0  0  0999 V2000
  -16.6266   35.2375  -21.3693 O   0  0  0  0  0  0  0  0  0  0  0  0
  -17.5740   35.5871  -22.1070 C   0  0  0  0  0  0  0  0  0  0  0  0
  -18.4618   34.6192  -22.5879 N   0  0  0  0  0  0  0  0  0  0  0  0
  -18.3245   33.2849  -22.2588 O   0  0  0  0  0  0  0  0  0  0  0  0
  -17.7318   36.9913  -22.4485 C   0  0  0  0  0  0  0  0  0  0  0  0
  -16.8865   37.9431  -21.9282 C   0  0  0  0  0  0  0  0  0  0  0  0
  -17.0531   39.2893  -22.2677 C   0  0  0  0  0  0  0  0  0  0  0  0
  -18.0613   39.6579  -23.1206 C   0  0  0  0  0  0  0  0  0  0  0  0
  -18.9099   38.7043  -23.6431 C   0  0  0  0  0  0  0  0  0  0  0  0
  -18.7632   37.3790  -23.3226 C   0  0  0  0  0  0  0  0  0  0  0  0
  -19.5970   36.3957  -23.8288 O   0  0  0  0  0  0  0  0  0  0  0  0
  1  2  2  0
  2  3  1  0
  3  4  1  0
  2  5  1  0
  5  6  2  0
  6  7  1  0
  7  8  2  0
  8  9  1  0
  9 10  2  0
 10 11  1  0
 10  5  1  0
M  END
$$$$
