
     RDKit          3D

 23 22  0  0  0  0  0  0  0  0999 V2000
  -21.7558   37.8837  -26.0567 C   0  0  0  0  0  0  0  0  0  0  0  0
  -21.6982   36.4453  -26.5137 C   0  0  0  0  0  0  0  0  0  0  0  0
  -20.5086   35.7929  -25.8108 C   0  0  0  0  0  0  0  0  0  0  0  0
  -20.7652   35.8988  -24.3244 C   0  0  0  0  0  0  0  0  0  0  0  0
  -19.6171   35.2595  -23.5904 C   0  0  0  0  0  0  0  0  0  0  0  0
  -18.3136   35.9221  -23.8933 C   0  0  0  0  0  0  0  0  0  0  0  0
  -18.2797   37.3868  -23.5269 C   0  0  0  0  0  0  0  0  0  0  0  0
  -18.5290   37.5116  -22.0584 C   0  0  0  0  0  0  0  0  0  0  0  0
  -18.5117   38.9291  -21.6073 C   0  0  0  0  0  0  0  0  0  0  0  0
  -19.6646   39.6846  -21.5958 C   0  0  0  0  0  0  0  0  0  0  0  0
  -19.6608   40.9989  -21.1799 C   0  0  0  0  0  0  0  0  0  0  0  0
  -18.4907   41.6389  -20.7472 C   0  0  0  0  0  0  0  0  0  0  0  0
  -18.5072   43.0353  -20.3113 C   0  0  0  0  0  0  0  0  0  0  0  0
  -18.0806   44.1055  -21.2152 C   0  0  0  0  0  0  0  0  0  0  0  0
  -18.7661   44.3050  -22.5171 C   0  0  0  0  0  0  0  0  0  0  0  0
  -20.1749   44.5312  -22.4607 N   0  0  0  0  0  0  0  0  0  0  0  0
  -18.2579   43.5042  -23.6568 C   0  0  0  0  0  0  0  0  0  0  0  0
  -18.7469   42.2501  -23.8062 O   0  0  0  0  0  0  0  0  0  0  0  0
  -18.2566   45.7882  -22.9168 C   0  0  0  0  0  0  0  0  0  0  0  0
  -16.8825   45.6657  -22.9956 O   0  0  0  0  0  0  0  0  0  0  0  0
  -17.3517   40.8592  -20.7690 C   0  0  0  0  0  0  0  0  0  0  0  0
  -17.3530   39.5444  -21.1846 C   0  0  0  0  0  0  0  0  0  0  0  0
  -19.4694   39.4004  -23.2901 Cl  0  0  0  0  0  0  0  0  0  0  0  0
  1  2  1  0
  2  3  1  0
  3  4  1  0
  4  5  1  0
  5  6  1  0
  6  7  1  0
  7  8  1  0
  8  9  1  0
  9 10  2  0
 10 11  1  0
 11 12  2  0
 12 13  1  0
 13 14  1  0
 14 15  1  0
 15 16  1  0
 15 17  1  0
 17 18  1  0
 15 19  1  0
 19 20  1  0
 12 21  1  0
 21 22  2  0
 22  9  1  0
M  END
$$$$
