
     RDKit          3D

 20 18  0  0  0  0  0  0  0  0999 V2000
    2.7954   19.9471  -18.9255 Br  0  0  0  0  0  0  0  0  0  0  0  0
    2.7955   19.9471  -18.9253 Br  0  0  0  0  0  0  0  0  0  0  0  0
   -1.2963   16.7672  -22.9260 N   0  0  0  0  0  0  0  0  0  0  0  0
   -1.3929   17.6783  -23.8229 C   0  0  0  0  0  0  0  0  0  0  0  0
   -2.5111   17.5678  -24.7099 N   0  0  0  0  0  0  0  0  0  0  0  0
   -0.2624   19.0282  -24.0524 S   0  0  0  0  0  0  0  0  0  0  0  0
    1.0188   19.1015  -22.7957 C   0  0  0  0  0  0  0  0  0  0  0  0
    0.4117   19.4633  -21.4813 C   0  0  0  0  0  0  0  0  0  0  0  0
    1.4251   19.5374  -20.3780 C   0  0  0  0  0  0  0  0  0  0  0  0
    1.7353   18.4267  -19.6163 C   0  0  0  0  0  0  0  0  0  0  0  0
    2.6621   18.4690  -18.5953 C   0  0  0  0  0  0  0  0  0  0  0  0
    3.3253   19.6413  -18.2909 C   0  0  0  0  0  0  0  0  0  0  0  0
    4.3269   19.7341  -17.2042 C   0  0  0  0  0  0  0  0  0  0  0  0
    3.7221   20.1119  -15.8715 C   0  0  0  0  0  0  0  0  0  0  0  0
    5.0780   20.1698  -14.6664 S   0  0  0  0  0  0  0  0  0  0  0  0
    6.1807   21.5076  -15.0763 C   0  0  0  0  0  0  0  0  0  0  0  0
    7.2126   21.7100  -14.3427 N   0  0  0  0  0  0  0  0  0  0  0  0
    5.9943   22.3825  -16.1802 N   0  0  0  0  0  0  0  0  0  0  0  0
    3.0242   20.7560  -19.0437 C   0  0  0  0  0  0  0  0  0  0  0  0
    2.0942   20.7037  -20.0648 C   0  0  0  0  0  0  0  0  0  0  0  0
  3  4  2  0
  4  5  1  0
  4  6  1  0
  6  7  1  0
  7  8  1  0
  8  9  1  0
  9 10  2  0
 10 11  1  0
 11 12  2  0
 12 13  1  0
 13 14  1  0
 14 15  1  0
 15 16  1  0
 16 17  2  0
 16 18  1  0
 12 19  1  0
 19 20  2  0
 20  9  1  0
M  END
$$$$
