
     RDKit          3D

 40 42  0  0  0  0  0  0  0  0999 V2000
  -15.9197   23.6932  -42.2257 C   0  0  0  0  0  0  0  0  0  0  0  0
  -16.5131   22.3950  -41.8005 C   0  0  0  0  0  0  0  0  0  0  0  0
  -16.8440   22.1884  -40.4821 C   0  0  0  0  0  0  0  0  0  0  0  0
  -17.3998   20.9790  -40.0171 C   0  0  0  0  0  0  0  0  0  0  0  0
  -17.7030   20.8402  -38.7095 O   0  0  0  0  0  0  0  0  0  0  0  0
  -17.4126   19.7495  -37.8906 C   0  0  1  0  0  0  0  0  0  0  0  0
  -17.1418   20.2621  -36.5172 C   0  0  0  0  0  0  0  0  0  0  0  0
  -16.8043   19.2692  -35.4845 C   0  0  0  0  0  0  0  0  0  0  0  0
  -16.5388   19.7639  -34.0937 C   0  0  0  0  0  0  0  0  0  0  0  0
  -17.6802   20.0483  -33.3957 F   0  0  0  0  0  0  0  0  0  0  0  0
  -15.8880   21.0388  -34.2024 F   0  0  0  0  0  0  0  0  0  0  0  0
  -15.6271   18.9921  -33.4398 F   0  0  0  0  0  0  0  0  0  0  0  0
  -18.5218   18.7461  -37.8651 C   0  0  0  0  0  0  0  0  0  0  0  0
  -19.8372   19.1325  -37.9048 C   0  0  0  0  0  0  0  0  0  0  0  0
  -20.8852   18.1964  -37.8991 C   0  0  0  0  0  0  0  0  0  0  0  0
  -20.6253   16.8451  -37.8525 C   0  0  0  0  0  0  0  0  0  0  0  0
  -21.6882   15.8317  -37.8423 C   0  0  0  0  0  0  0  0  0  0  0  0
  -21.7481   15.0902  -36.8212 O   0  0  0  0  0  0  0  0  0  0  0  0
  -22.5956   15.6963  -38.9213 N   0  0  0  0  0  0  0  0  0  0  0  0
  -24.0106   15.6251  -38.6365 C   0  0  0  0  0  0  0  0  0  0  0  0
  -24.4984   14.2291  -38.9488 C   0  0  0  0  0  0  0  0  0  0  0  0
  -24.1765   13.3235  -37.8066 C   0  0  0  0  0  0  0  0  0  0  0  0
  -24.2872   13.7953  -36.6421 O   0  0  0  0  0  0  0  0  0  0  0  0
  -23.7747   12.0294  -38.0772 O   0  0  0  0  0  0  0  0  0  0  0  0
  -19.2868   16.4779  -37.8118 C   0  0  0  0  0  0  0  0  0  0  0  0
  -18.2499   17.3858  -37.8172 C   0  0  0  0  0  0  0  0  0  0  0  0
  -17.6010   19.9974  -40.9500 C   0  0  0  0  0  0  0  0  0  0  0  0
  -17.2877   20.1401  -42.3059 C   0  0  0  0  0  0  0  0  0  0  0  0
  -17.5302   19.0355  -43.2598 C   0  0  0  0  0  0  0  0  0  0  0  0
  -16.7496   21.3515  -42.6764 C   0  0  0  0  0  0  0  0  0  0  0  0
  -16.4060   21.5777  -44.0658 C   0  0  0  0  0  0  0  0  0  0  0  0
  -15.1348   21.3811  -44.5353 C   0  0  0  0  0  0  0  0  0  0  0  0
  -14.8503   21.6062  -45.8635 C   0  0  0  0  0  0  0  0  0  0  0  0
  -15.7882   22.0294  -46.7814 C   0  0  0  0  0  0  0  0  0  0  0  0
  -15.4453   22.2585  -48.2152 C   0  0  0  0  0  0  0  0  0  0  0  0
  -14.4914   23.4344  -48.3524 C   0  0  0  0  0  0  0  0  0  0  0  0
  -14.8150   20.9798  -48.7229 C   0  0  0  0  0  0  0  0  0  0  0  0
  -16.7133   22.5006  -48.9698 C   0  0  0  0  0  0  0  0  0  0  0  0
  -17.0586   22.2183  -46.2747 C   0  0  0  0  0  0  0  0  0  0  0  0
  -17.3637   21.9986  -44.9484 C   0  0  0  0  0  0  0  0  0  0  0  0
  1  2  1  0
  2  3  2  0
  3  4  1  0
  4  5  1  0
  5  6  1  0
  6  7  1  1
  7  8  1  0
  8  9  1  0
  9 10  1  0
  9 11  1  0
  9 12  1  0
  6 13  1  0
 13 14  2  0
 14 15  1  0
 15 16  2  0
 16 17  1  0
 17 18  2  0
 17 19  1  0
 19 20  1  0
 20 21  1  0
 21 22  1  0
 22 23  2  0
 22 24  1  0
 16 25  1  0
 25 26  2  0
  4 27  2  0
 27 28  1  0
 28 29  1  0
 28 30  2  0
 30 31  1  0
 31 32  2  0
 32 33  1  0
 33 34  2  0
 34 35  1  0
 35 36  1  0
 35 37  1  0
 35 38  1  0
 34 39  1  0
 39 40  2  0
 30  2  1  0
 40 31  1  0
 26 13  1  0
M  END
$$$$
