
     RDKit          3D

 41 44  0  0  0  0  0  0  0  0999 V2000
  -21.2537   23.6513  -29.2552 C   0  0  0  0  0  0  0  0  0  0  0  0
  -21.9359   22.5641  -30.0550 C   0  0  0  0  0  0  0  0  0  0  0  0
  -22.6293   21.5987  -29.1510 C   0  0  0  0  0  0  0  0  0  0  0  0
  -21.0003   21.8841  -31.0083 C   0  0  0  0  0  0  0  0  0  0  0  0
  -21.6663   21.5916  -32.3616 C   0  0  1  0  0  0  0  0  0  0  0  0
  -20.5380   21.4081  -33.3374 C   0  0  0  0  0  0  0  0  0  0  0  0
  -20.1233   20.0388  -33.4713 N   0  0  0  0  0  0  0  0  0  0  0  0
  -18.4712   19.6486  -33.6401 S   0  0  0  0  0  6  0  0  0  0  0  0
  -18.3056   18.7798  -34.9066 O   0  0  0  0  0  0  0  0  0  0  0  0
  -17.5749   20.8045  -33.9270 O   0  0  0  0  0  0  0  0  0  0  0  0
  -17.8939   18.6246  -32.3458 C   0  0  0  0  0  0  0  0  0  0  0  0
  -17.2304   19.1533  -31.2559 C   0  0  0  0  0  0  0  0  0  0  0  0
  -16.7727   18.3385  -30.2277 C   0  0  0  0  0  0  0  0  0  0  0  0
  -16.9755   16.9697  -30.2779 C   0  0  0  0  0  0  0  0  0  0  0  0
  -17.6356   16.4304  -31.3588 C   0  0  0  0  0  0  0  0  0  0  0  0
  -17.8427   14.9671  -31.3963 C   0  0  0  0  0  0  0  0  0  0  0  0
  -19.1648   14.6585  -31.2490 F   0  0  0  0  0  0  0  0  0  0  0  0
  -17.4536   14.4330  -32.6313 F   0  0  0  0  0  0  0  0  0  0  0  0
  -17.0841   14.3069  -30.4501 F   0  0  0  0  0  0  0  0  0  0  0  0
  -18.0791   17.2638  -32.3655 C   0  0  0  0  0  0  0  0  0  0  0  0
  -21.1239   19.0391  -33.4658 C   0  0  0  0  0  0  0  0  0  0  0  0
  -20.9475   17.8383  -34.1095 C   0  0  0  0  0  0  0  0  0  0  0  0
  -21.9303   16.8930  -34.0875 C   0  0  0  0  0  0  0  0  0  0  0  0
  -21.6894   15.6188  -34.7936 C   0  0  0  0  0  0  0  0  0  0  0  0
  -20.7033   14.7486  -34.4399 C   0  0  0  0  0  0  0  0  0  0  0  0
  -20.5360   13.5820  -35.1434 C   0  0  0  0  0  0  0  0  0  0  0  0
  -19.5636   12.6935  -34.8174 F   0  0  0  0  0  0  0  0  0  0  0  0
  -21.3658   13.2637  -36.2283 C   0  0  0  0  0  0  0  0  0  0  0  0
  -22.3542   14.1070  -36.6047 C   0  0  0  0  0  0  0  0  0  0  0  0
  -23.2115   13.8740  -37.6543 O   0  0  0  0  0  0  0  0  0  0  0  0
  -24.4526   13.2731  -37.5223 C   0  0  0  0  0  0  0  0  0  0  0  0
  -25.3509   14.2060  -36.9986 F   0  0  0  0  0  0  0  0  0  0  0  0
  -25.0068   12.9647  -38.7859 F   0  0  0  0  0  0  0  0  0  0  0  0
  -22.4873   15.2892  -35.8545 C   0  0  0  0  0  0  0  0  0  0  0  0
  -23.1169   17.1129  -33.4257 C   0  0  0  0  0  0  0  0  0  0  0  0
  -23.3275   18.3048  -32.7705 C   0  0  0  0  0  0  0  0  0  0  0  0
  -22.3341   19.2565  -32.7945 C   0  0  0  0  0  0  0  0  0  0  0  0
  -22.4676   20.4753  -32.1639 O   0  0  0  0  0  0  0  0  0  0  0  0
  -22.9759   23.2398  -30.8886 C   0  0  0  0  0  0  0  0  0  0  0  0
  -23.9402   23.8830  -30.4054 O   0  0  0  0  0  0  0  0  0  0  0  0
  -22.8726   23.1532  -32.2834 O   0  0  0  0  0  0  0  0  0  0  0  0
  1  2  1  0
  2  3  1  0
  2  4  1  0
  5  4  1  1
  5  6  1  0
  6  7  1  0
  7  8  1  0
  8  9  2  0
  8 10  2  0
  8 11  1  0
 11 12  2  0
 12 13  1  0
 13 14  2  0
 14 15  1  0
 15 16  1  0
 16 17  1  0
 16 18  1  0
 16 19  1  0
 15 20  2  0
  7 21  1  0
 21 22  2  0
 22 23  1  0
 23 24  1  0
 24 25  2  0
 25 26  1  0
 26 27  1  0
 26 28  2  0
 28 29  1  0
 29 30  1  0
 30 31  1  0
 31 32  1  0
 31 33  1  0
 29 34  2  0
 23 35  2  0
 35 36  1  0
 36 37  2  0
 37 38  1  0
  2 39  1  0
 39 40  2  0
 39 41  1  0
 38  5  1  0
 20 11  1  0
 37 21  1  0
 34 24  1  0
M  END
$$$$
