
     RDKit          3D

 27 29  0  0  0  0  0  0  0  0999 V2000
  -20.6807   -0.8961  -36.9047 C   0  0  0  0  0  0  0  0  0  0  0  0
  -21.1452   -0.5966  -35.6109 O   0  0  0  0  0  0  0  0  0  0  0  0
  -20.3985    0.1163  -34.6764 C   0  0  0  0  0  0  0  0  0  0  0  0
  -19.1100    0.5141  -34.9640 C   0  0  0  0  0  0  0  0  0  0  0  0
  -18.3716    1.2203  -34.0366 C   0  0  0  0  0  0  0  0  0  0  0  0
  -17.0382    1.6469  -34.2989 N   0  0  0  0  0  0  0  0  0  0  0  0
  -16.0413    1.4044  -33.3160 C   0  0  0  0  0  0  0  0  0  0  0  0
  -15.2051    0.2140  -33.4888 C   0  0  0  0  0  0  0  0  0  0  0  0
  -15.3543   -0.6689  -34.5055 C   0  0  0  0  0  0  0  0  0  0  0  0
  -14.5184   -1.7880  -34.6064 C   0  0  0  0  0  0  0  0  0  0  0  0
  -13.5240   -2.0289  -33.6842 C   0  0  0  0  0  0  0  0  0  0  0  0
  -12.7317   -3.1188  -33.8032 N   0  0  0  0  0  0  0  0  0  0  0  0
  -11.7574   -3.3767  -32.9156 C   0  0  0  0  0  0  0  0  0  0  0  0
  -10.9287   -4.5343  -33.0576 N   0  0  0  0  0  0  0  0  0  0  0  0
  -11.6059   -2.5118  -31.9130 N   0  0  0  0  0  0  0  0  0  0  0  0
  -12.3783   -1.3972  -31.7473 C   0  0  0  0  0  0  0  0  0  0  0  0
  -12.0960   -0.5930  -30.6408 N   0  0  0  0  0  0  0  0  0  0  0  0
  -13.3790   -1.1104  -32.6386 C   0  0  0  0  0  0  0  0  0  0  0  0
  -14.1974   -0.0007  -32.5271 C   0  0  0  0  0  0  0  0  0  0  0  0
  -14.0052    0.9423  -31.4172 C   0  0  0  0  0  0  0  0  0  0  0  0
  -18.9949    1.4957  -32.8290 C   0  0  0  0  0  0  0  0  0  0  0  0
  -20.2829    1.0996  -32.5377 C   0  0  0  0  0  0  0  0  0  0  0  0
  -20.8673    1.3913  -31.3286 O   0  0  0  0  0  0  0  0  0  0  0  0
  -20.2139    2.0982  -30.2920 C   0  0  0  0  0  0  0  0  0  0  0  0
  -21.0107    0.3945  -33.4724 C   0  0  0  0  0  0  0  0  0  0  0  0
  -22.3244   -0.0246  -33.2096 O   0  0  0  0  0  0  0  0  0  0  0  0
  -22.4666   -1.3107  -32.6076 C   0  0  0  0  0  0  0  0  0  0  0  0
  1  2  1  0
  2  3  1  0
  3  4  2  0
  4  5  1  0
  5  6  1  0
  6  7  1  0
  7  8  1  0
  8  9  2  0
  9 10  1  0
 10 11  2  0
 11 12  1  0
 12 13  2  0
 13 14  1  0
 13 15  1  0
 15 16  2  0
 16 17  1  0
 16 18  1  0
 18 19  2  0
 19 20  1  0
  5 21  2  0
 21 22  1  0
 22 23  1  0
 23 24  1  0
 22 25  2  0
 25 26  1  0
 26 27  1  0
 25  3  1  0
 19  8  1  0
 18 11  1  0
M  END
$$$$
