
     RDKit          3D

  4  3  0  0  0  0  0  0  0  0999 V2000
  -17.0253   35.4180  -21.7607 C   0  0  0  0  0  0  0  0  0  0  0  0
  -18.3130   34.6900  -21.8353 C   0  0  0  0  0  0  0  0  0  0  0  0
  -18.3903   33.4715  -22.5680 N   0  0  0  0  0  0  0  0  0  0  0  0
  -19.3631   35.0845  -21.2834 O   0  0  0  0  0  0  0  0  0  0  0  0
  1  2  1  0
  2  3  1  0
  2  4  2  0
M  END
$$$$
