
     RDKit          3D

 37 40  0  0  0  0  0  0  0  0999 V2000
  -13.5054   47.6500  -18.2598 C   0  0  0  0  0  0  0  0  0  0  0  0
  -14.7955   47.4115  -17.7331 O   0  0  0  0  0  0  0  0  0  0  0  0
  -15.4832   46.2468  -18.0078 C   0  0  0  0  0  0  0  0  0  0  0  0
  -16.6987   45.9872  -17.4252 C   0  0  0  0  0  0  0  0  0  0  0  0
  -17.3436   44.8237  -17.7254 C   0  0  0  0  0  0  0  0  0  0  0  0
  -16.7852   43.9204  -18.6003 C   0  0  0  0  0  0  0  0  0  0  0  0
  -17.4227   42.6333  -18.9737 C   0  0  2  0  0  0  0  0  0  0  0  0
  -17.8061   42.0438  -17.7425 O   0  0  0  0  0  0  0  0  0  0  0  0
  -16.3404   41.7376  -19.5183 C   0  0  0  0  0  0  0  0  0  0  0  0
  -16.9627   40.4796  -20.0192 C   0  0  0  0  0  0  0  0  0  0  0  0
  -17.9036   40.7396  -21.1449 C   0  0  1  0  0  0  0  0  0  0  0  0
  -18.8094   39.6182  -21.2580 N   0  0  0  0  0  0  0  0  0  0  0  0
  -18.3598   38.4151  -20.6574 C   0  0  0  0  0  0  0  0  0  0  0  0
  -18.1762   37.3901  -21.7543 C   0  0  0  0  0  0  0  0  0  0  0  0
  -18.4241   38.1041  -23.0412 C   0  0  1  0  0  0  0  0  0  0  0  0
  -19.3133   37.3736  -23.9345 N   0  0  0  0  0  0  0  0  0  0  0  0
  -18.8806   36.8570  -25.1777 C   0  0  0  0  0  0  0  0  0  0  0  0
  -17.6992   37.2217  -25.5268 O   0  0  0  0  0  0  0  0  0  0  0  0
  -19.6606   35.9716  -26.0616 C   0  0  0  0  0  0  0  0  0  0  0  0
  -20.0409   36.6986  -27.2658 N   0  0  0  0  0  0  0  0  0  0  0  0
  -20.9015   37.8124  -27.1810 C   0  0  0  0  0  0  0  0  0  0  0  0
  -20.4936   38.8432  -26.5526 O   0  0  0  0  0  0  0  0  0  0  0  0
  -22.2208   37.8414  -27.7707 C   0  0  0  0  0  0  0  0  0  0  0  0
  -23.0096   36.6831  -27.7842 C   0  0  0  0  0  0  0  0  0  0  0  0
  -24.2641   36.6344  -28.3224 C   0  0  0  0  0  0  0  0  0  0  0  0
  -24.7771   37.7818  -28.8786 C   0  0  0  0  0  0  0  0  0  0  0  0
  -24.0574   38.9469  -28.8973 C   0  0  0  0  0  0  0  0  0  0  0  0
  -24.6266   40.1699  -29.4999 C   0  0  0  0  0  0  0  0  0  0  0  0
  -23.7846   41.2555  -29.3251 F   0  0  0  0  0  0  0  0  0  0  0  0
  -24.8276   39.9125  -30.8598 F   0  0  0  0  0  0  0  0  0  0  0  0
  -25.8470   40.5053  -28.9058 F   0  0  0  0  0  0  0  0  0  0  0  0
  -22.7933   38.9509  -28.3421 C   0  0  0  0  0  0  0  0  0  0  0  0
  -19.1098   39.3898  -22.6344 C   0  0  0  0  0  0  0  0  0  0  0  0
  -18.5708   42.0667  -21.1368 C   0  0  0  0  0  0  0  0  0  0  0  0
  -18.6326   42.7540  -19.8210 C   0  0  0  0  0  0  0  0  0  0  0  0
  -15.5668   44.2290  -19.1554 C   0  0  0  0  0  0  0  0  0  0  0  0
  -14.9456   45.3636  -18.8581 N   0  0  0  0  0  0  0  0  0  0  0  0
  1  2  1  0
  2  3  1  0
  3  4  2  0
  4  5  1  0
  5  6  2  0
  6  7  1  0
  7  8  1  1
  7  9  1  0
  9 10  1  0
 10 11  1  0
 11 12  1  1
 12 13  1  0
 13 14  1  0
 14 15  1  0
 15 16  1  6
 16 17  1  0
 17 18  2  0
 17 19  1  0
 19 20  1  0
 20 21  1  0
 21 22  2  0
 21 23  1  0
 23 24  2  0
 24 25  1  0
 25 26  2  0
 26 27  1  0
 27 28  1  0
 28 29  1  0
 28 30  1  0
 28 31  1  0
 27 32  2  0
 15 33  1  0
 11 34  1  0
 34 35  1  0
  6 36  1  0
 36 37  2  0
 37  3  1  0
 35  7  1  0
 33 12  1  0
 32 23  1  0
M  END
$$$$
