
     RDKit          3D

 30 35  0  0  0  0  0  0  0  0999 V2000
   -5.3596    6.0879  -41.1691 O   0  0  0  0  0  0  0  0  0  0  0  0
   -4.2639    6.6708  -40.9839 C   0  0  0  0  0  0  0  0  0  0  0  0
   -3.5271    7.2213  -42.0288 C   0  0  0  0  0  0  0  0  0  0  0  0
   -2.3230    7.8620  -41.8277 C   0  0  0  0  0  0  0  0  0  0  0  0
   -1.5904    8.4149  -42.9098 N   0  0  0  0  0  0  0  0  0  0  0  0
   -2.1276    8.8063  -44.1825 C   0  0  0  0  0  0  0  0  0  0  0  0
   -1.3056    8.1556  -45.2952 C   0  0  0  0  0  0  0  0  0  0  0  0
    0.0467    8.2641  -45.0981 O   0  0  0  0  0  0  0  0  0  0  0  0
    0.3892    9.1139  -44.0495 C   0  0  0  0  0  0  0  0  0  0  0  0
   -0.1485    8.6163  -42.7321 C   0  0  0  0  0  0  0  0  0  0  0  0
   -1.8520    7.9543  -40.5821 O   0  0  0  0  0  0  0  0  0  0  0  0
   -2.5221    7.4472  -39.5842 C   0  0  0  0  0  0  0  0  0  0  0  0
   -1.9287    7.6057  -38.3248 C   0  0  0  0  0  0  0  0  0  0  0  0
   -0.6635    8.2906  -38.1851 C   0  0  0  0  0  0  0  0  0  0  0  0
   -0.5235    9.4254  -37.4196 C   0  0  0  0  0  0  0  0  0  0  0  0
    0.7471    9.9865  -37.3684 C   0  0  0  0  0  0  0  0  0  0  0  0
    1.8198    9.4577  -38.0352 C   0  0  0  0  0  0  0  0  0  0  0  0
    1.6795    8.2875  -38.8258 C   0  0  0  0  0  0  0  0  0  0  0  0
    0.4280    7.7888  -38.8379 C   0  0  0  0  0  0  0  0  0  0  0  0
    0.5314    6.3842  -39.8610 S   0  0  0  0  0  0  0  0  0  0  0  0
    2.3304    6.5431  -40.2388 C   0  0  0  0  0  0  0  0  0  0  0  0
    3.1389    5.7665  -41.0097 C   0  0  0  0  0  0  0  0  0  0  0  0
    4.4654    6.1232  -41.1192 C   0  0  0  0  0  0  0  0  0  0  0  0
    4.8581    7.2481  -40.4295 C   0  0  0  0  0  0  0  0  0  0  0  0
    4.0320    8.0198  -39.6572 C   0  0  0  0  0  0  0  0  0  0  0  0
    2.6469    7.6590  -39.5346 C   0  0  0  0  0  0  0  0  0  0  0  0
   -2.6214    7.0762  -37.2553 C   0  0  0  0  0  0  0  0  0  0  0  0
   -3.8205    6.4285  -37.3840 C   0  0  0  0  0  0  0  0  0  0  0  0
   -4.3905    6.2794  -38.6159 C   0  0  0  0  0  0  0  0  0  0  0  0
   -3.7298    6.7961  -39.7230 C   0  0  0  0  0  0  0  0  0  0  0  0
  1  2  2  0
  2  3  1  0
  3  4  2  0
  4  5  1  0
  5  6  1  0
  6  7  1  0
  7  8  1  0
  8  9  1  0
  9 10  1  0
  4 11  1  0
 11 12  1  0
 12 13  2  0
 13 14  1  0
 14 15  2  0
 15 16  1  0
 16 17  2  0
 17 18  1  0
 18 19  2  0
 19 20  1  0
 20 21  1  0
 21 22  2  0
 22 23  1  0
 23 24  2  0
 24 25  1  0
 25 26  2  0
 13 27  1  0
 27 28  2  0
 28 29  1  0
 29 30  2  0
 30  2  1  0
 10  5  1  0
 30 12  1  0
 19 14  1  0
 26 21  1  0
 26 18  1  0
M  END
$$$$
