
     RDKit          3D

 20 21  0  0  0  0  0  0  0  0999 V2000
  -22.2391   15.8576  -33.8171 C   0  0  0  0  0  0  0  0  0  0  0  0
  -21.1713   16.8839  -34.0356 C   0  0  0  0  0  0  0  0  0  0  0  0
  -20.0381   16.5279  -33.2554 O   0  0  0  0  0  0  0  0  0  0  0  0
  -18.8484   17.1980  -33.4950 C   0  0  0  0  0  0  0  0  0  0  0  0
  -18.8143   18.1359  -34.3263 O   0  0  0  0  0  0  0  0  0  0  0  0
  -17.6200   16.8563  -32.8148 C   0  0  0  0  0  0  0  0  0  0  0  0
  -17.2638   15.3247  -31.9805 S   0  0  0  0  0  0  0  0  0  0  0  0
  -15.6500   15.7311  -31.4674 C   0  0  0  0  0  0  0  0  0  0  0  0
  -14.7394   14.9173  -30.7139 N   0  0  0  0  0  0  0  0  0  0  0  0
  -15.2172   14.0542  -29.7069 C   0  0  0  0  0  0  0  0  0  0  0  0
  -16.4542   13.9984  -29.5162 O   0  0  0  0  0  0  0  0  0  0  0  0
  -14.3289   13.2337  -28.8895 C   0  0  0  0  0  0  0  0  0  0  0  0
  -14.7206   12.5296  -27.3175 S   0  0  0  0  0  0  0  0  0  0  0  0
  -13.1562   11.7333  -27.0537 C   0  0  0  0  0  0  0  0  0  0  0  0
  -12.4458   12.0665  -28.1937 C   0  0  0  0  0  0  0  0  0  0  0  0
  -13.0521   12.8275  -29.1161 C   0  0  0  0  0  0  0  0  0  0  0  0
  -12.3810   13.2699  -30.4245 C   0  0  0  0  0  0  0  0  0  0  0  0
  -15.4695   16.9871  -31.9484 C   0  0  0  0  0  0  0  0  0  0  0  0
  -16.4695   17.5638  -32.6348 C   0  0  0  0  0  0  0  0  0  0  0  0
  -16.3854   18.9740  -33.2258 C   0  0  0  0  0  0  0  0  0  0  0  0
  1  2  1  0
  2  3  1  0
  3  4  1  0
  4  5  2  0
  4  6  1  0
  6  7  1  0
  7  8  1  0
  8  9  1  0
  9 10  1  0
 10 11  2  0
 10 12  1  0
 12 13  1  0
 13 14  1  0
 14 15  2  0
 15 16  1  0
 16 17  1  0
  8 18  2  0
 18 19  1  0
 19 20  1  0
 19  6  2  0
 16 12  2  0
M  END
$$$$
