
     RDKit          3D

 31 34  0  0  0  0  0  0  0  0999 V2000
  -21.8650   21.2718  -29.7197 C   0  0  0  0  0  0  0  0  0  0  0  0
  -22.7015   20.3520  -30.5624 C   0  0  0  0  0  0  0  0  0  0  0  0
  -22.1960   19.6352  -31.5228 C   0  0  0  0  0  0  0  0  0  0  0  0
  -20.7962   19.5959  -31.9221 C   0  0  0  0  0  0  0  0  0  0  0  0
  -20.5208   20.2553  -33.0234 O   0  0  0  0  0  0  0  0  0  0  0  0
  -19.6608   19.0072  -31.3936 N   0  0  0  0  0  0  0  0  0  0  0  0
  -18.4691   18.6120  -32.0627 C   0  0  0  0  0  0  0  0  0  0  0  0
  -18.4005   18.0953  -33.3065 C   0  0  0  0  0  0  0  0  0  0  0  0
  -17.1627   17.7296  -33.8922 C   0  0  0  0  0  0  0  0  0  0  0  0
  -16.8008   17.1953  -35.1065 C   0  0  0  0  0  0  0  0  0  0  0  0
  -15.4719   17.0561  -35.1168 N   0  0  0  0  0  0  0  0  0  0  0  0
  -14.9582   17.4732  -33.9716 N   0  0  0  0  0  0  0  0  0  0  0  0
  -15.9932   17.8980  -33.1915 C   0  0  0  0  0  0  0  0  0  0  0  0
  -16.0423   18.4189  -31.9326 C   0  0  0  0  0  0  0  0  0  0  0  0
  -17.2564   18.7694  -31.3780 C   0  0  0  0  0  0  0  0  0  0  0  0
  -17.1919   19.2788  -30.1189 F   0  0  0  0  0  0  0  0  0  0  0  0
  -23.1726   18.8282  -32.3466 C   0  0  0  0  0  0  0  0  0  0  0  0
  -22.5741   17.8808  -33.2742 C   0  0  0  0  0  0  0  0  0  0  0  0
  -22.4162   18.1666  -34.6168 C   0  0  0  0  0  0  0  0  0  0  0  0
  -21.8204   17.2539  -35.4865 C   0  0  0  0  0  0  0  0  0  0  0  0
  -21.3712   16.0359  -35.0250 C   0  0  0  0  0  0  0  0  0  0  0  0
  -20.7335   15.0691  -35.9772 C   0  0  0  0  0  0  0  0  0  0  0  0
  -19.3705   15.0203  -35.7913 F   0  0  0  0  0  0  0  0  0  0  0  0
  -21.0418   15.4310  -37.2880 F   0  0  0  0  0  0  0  0  0  0  0  0
  -21.2408   13.7971  -35.7982 F   0  0  0  0  0  0  0  0  0  0  0  0
  -21.5236   15.7414  -33.6895 C   0  0  0  0  0  0  0  0  0  0  0  0
  -22.1192   16.6579  -32.8290 C   0  0  0  0  0  0  0  0  0  0  0  0
  -24.1923   18.1862  -31.4482 C   0  0  0  0  0  0  0  0  0  0  0  0
  -24.9218   19.3807  -30.8503 C   0  0  0  0  0  0  0  0  0  0  0  0
  -26.1410   19.4465  -31.0270 O   0  0  0  0  0  0  0  0  0  0  0  0
  -24.0977   20.2909  -30.1488 N   0  0  0  0  0  0  0  0  0  0  0  0
  1  2  1  0
  2  3  2  0
  3  4  1  0
  4  5  2  0
  4  6  1  0
  6  7  1  0
  7  8  2  0
  8  9  1  0
  9 10  1  0
 10 11  2  0
 11 12  1  0
 12 13  1  0
 13 14  1  0
 14 15  2  0
 15 16  1  0
  3 17  1  0
 17 18  1  0
 18 19  2  0
 19 20  1  0
 20 21  2  0
 21 22  1  0
 22 23  1  0
 22 24  1  0
 22 25  1  0
 21 26  1  0
 26 27  2  0
 17 28  1  0
 28 29  1  0
 29 30  2  0
 29 31  1  0
 31  2  1  0
 15  7  1  0
 27 18  1  0
 13  9  2  0
M  END
$$$$
