
     RDKit          3D

 38 42  0  0  0  0  0  0  0  0999 V2000
  -18.0570   13.3118  -34.1098 C   0  0  0  0  0  0  0  0  0  0  0  0
  -18.4470   14.7638  -33.8975 C   0  0  1  0  0  0  0  0  0  0  0  0
  -17.2708   15.5020  -33.8731 O   0  0  0  0  0  0  0  0  0  0  0  0
  -17.2024   16.9184  -33.9057 C   0  0  0  0  0  0  0  0  0  0  0  0
  -18.0581   17.7684  -33.3126 C   0  0  0  0  0  0  0  0  0  0  0  0
  -17.8880   19.0870  -33.4161 C   0  0  0  0  0  0  0  0  0  0  0  0
  -18.6473   20.1779  -32.8897 N   0  0  0  0  0  0  0  0  0  0  0  0
  -18.3385   20.9920  -31.8682 C   0  0  0  0  0  0  0  0  0  0  0  0
  -19.3184   21.8997  -31.6783 N   0  0  0  0  0  0  0  0  0  0  0  0
  -20.2759   21.6733  -32.5875 C   0  0  0  0  0  0  0  0  0  0  0  0
  -21.4794   22.2717  -32.8605 C   0  0  0  0  0  0  0  0  0  0  0  0
  -22.2691   21.8097  -33.8792 C   0  0  0  0  0  0  0  0  0  0  0  0
  -21.8564   20.7444  -34.6306 C   0  0  0  0  0  0  0  0  0  0  0  0
  -22.6861   20.2091  -35.7486 C   0  0  0  0  0  0  0  0  0  0  0  0
  -22.2333   20.6204  -37.0471 N   0  0  0  0  0  0  0  0  0  0  0  0
  -22.4891   19.5433  -37.9819 C   0  0  0  0  0  0  0  0  0  0  0  0
  -23.7966   19.7175  -38.7241 C   0  0  0  0  0  0  0  0  0  0  0  0
  -23.7455   20.8634  -39.6120 N   0  0  0  0  0  0  0  0  0  0  0  0
  -23.3653   20.5052  -40.9507 C   0  0  0  0  0  0  0  0  0  0  0  0
  -22.8790   21.8735  -39.0278 C   0  0  0  0  0  0  0  0  0  0  0  0
  -22.8956   21.8002  -37.5139 C   0  0  0  0  0  0  0  0  0  0  0  0
  -20.6524   20.1411  -34.3621 C   0  0  0  0  0  0  0  0  0  0  0  0
  -19.8457   20.5903  -33.3436 C   0  0  0  0  0  0  0  0  0  0  0  0
  -16.4240   19.2445  -34.4149 S   0  0  0  0  0  0  0  0  0  0  0  0
  -16.1572   17.4866  -34.6144 C   0  0  0  0  0  0  0  0  0  0  0  0
  -15.0661   16.8547  -35.3676 C   0  0  0  0  0  0  0  0  0  0  0  0
  -13.7240   16.9419  -34.9717 N   0  0  0  0  0  0  0  0  0  0  0  0
  -15.3811   16.2238  -36.3939 O   0  0  0  0  0  0  0  0  0  0  0  0
  -19.3034   15.1554  -35.0529 C   0  0  0  0  0  0  0  0  0  0  0  0
  -18.8197   15.2780  -36.3355 C   0  0  0  0  0  0  0  0  0  0  0  0
  -19.6110   15.6351  -37.4030 C   0  0  0  0  0  0  0  0  0  0  0  0
  -20.9330   15.8834  -37.2081 C   0  0  0  0  0  0  0  0  0  0  0  0
  -21.4488   15.7724  -35.9516 C   0  0  0  0  0  0  0  0  0  0  0  0
  -20.6487   15.4087  -34.8576 C   0  0  0  0  0  0  0  0  0  0  0  0
  -21.2596   15.3146  -33.5342 C   0  0  0  0  0  0  0  0  0  0  0  0
  -22.6181   15.0689  -33.5379 F   0  0  0  0  0  0  0  0  0  0  0  0
  -20.5800   14.4016  -32.7145 F   0  0  0  0  0  0  0  0  0  0  0  0
  -21.1126   16.5312  -32.8860 F   0  0  0  0  0  0  0  0  0  0  0  0
  2  1  1  6
  2  3  1  0
  3  4  1  0
  4  5  1  0
  5  6  2  0
  6  7  1  0
  7  8  1  0
  8  9  2  0
  9 10  1  0
 10 11  2  0
 11 12  1  0
 12 13  2  0
 13 14  1  0
 14 15  1  0
 15 16  1  0
 16 17  1  0
 17 18  1  0
 18 19  1  0
 18 20  1  0
 20 21  1  0
 13 22  1  0
 22 23  2  0
  6 24  1  0
 24 25  1  0
 25 26  1  0
 26 27  1  0
 26 28  2  0
  2 29  1  0
 29 30  2  0
 30 31  1  0
 31 32  2  0
 32 33  1  0
 33 34  2  0
 34 35  1  0
 35 36  1  0
 35 37  1  0
 35 38  1  0
 25  4  2  0
 34 29  1  0
 23  7  1  0
 23 10  1  0
 21 15  1  0
M  END
$$$$
