
     RDKit          3D

 42 46  0  0  0  0  0  0  0  0999 V2000
  -25.3391   12.6308  -30.5921 C   0  0  0  0  0  0  0  0  0  0  0  0
  -24.8058   14.0301  -30.5315 C   0  0  0  0  0  0  0  0  0  0  0  0
  -25.4709   14.7765  -29.3531 C   0  0  0  0  0  0  0  0  0  0  0  0
  -24.9223   16.1496  -29.3434 C   0  0  0  0  0  0  0  0  0  0  0  0
  -24.5169   16.7286  -30.5479 C   0  0  0  0  0  0  0  0  0  0  0  0
  -24.1167   18.0428  -30.6133 C   0  0  0  0  0  0  0  0  0  0  0  0
  -23.6951   18.6090  -31.9175 C   0  0  0  0  0  0  0  0  0  0  0  0
  -24.1215   18.7666  -29.4895 N   0  0  0  0  0  0  0  0  0  0  0  0
  -24.4966   18.2493  -28.3284 C   0  0  0  0  0  0  0  0  0  0  0  0
  -24.4718   18.9921  -27.3173 O   0  0  0  0  0  0  0  0  0  0  0  0
  -24.9102   16.9160  -28.2182 C   0  0  0  0  0  0  0  0  0  0  0  0
  -25.1673   16.4362  -26.8420 C   0  0  0  0  0  0  0  0  0  0  0  0
  -26.5745   16.3822  -26.5764 N   0  0  0  0  0  0  0  0  0  0  0  0
  -27.3558   17.3073  -25.9071 C   0  0  0  0  0  0  0  0  0  0  0  0
  -26.9337   17.9419  -24.9252 O   0  0  0  0  0  0  0  0  0  0  0  0
  -28.7596   17.6026  -26.3242 C   0  0  0  0  0  0  0  0  0  0  0  0
  -28.9534   18.4782  -27.3640 C   0  0  0  0  0  0  0  0  0  0  0  0
  -30.2418   18.8087  -27.8159 C   0  0  0  0  0  0  0  0  0  0  0  0
  -30.4169   19.7472  -28.9146 C   0  0  0  0  0  0  0  0  0  0  0  0
  -29.4756   20.6991  -29.2101 C   0  0  0  0  0  0  0  0  0  0  0  0
  -29.7287   21.5566  -30.2789 C   0  0  0  0  0  0  0  0  0  0  0  0
  -30.8949   21.4507  -31.0208 C   0  0  0  0  0  0  0  0  0  0  0  0
  -31.1488   22.3357  -32.1134 N   0  0  0  0  0  0  0  0  0  0  0  0
  -30.1271   23.2613  -32.5011 C   0  0  0  0  0  0  0  0  0  0  0  0
  -30.6527   24.7022  -32.5788 C   0  0  0  0  0  0  0  0  0  0  0  0
  -31.9664   24.7221  -33.0874 N   0  0  0  0  0  0  0  0  0  0  0  0
  -32.7122   25.9003  -33.0525 C   0  0  0  0  0  0  0  0  0  0  0  0
  -31.9118   27.1804  -33.0795 C   0  0  0  0  0  0  0  0  0  0  0  0
  -33.7301   25.9977  -34.1778 C   0  0  0  0  0  0  0  0  0  0  0  0
  -32.4731   23.5619  -33.7015 C   0  0  0  0  0  0  0  0  0  0  0  0
  -32.3998   22.3244  -32.8376 C   0  0  0  0  0  0  0  0  0  0  0  0
  -31.7985   20.5072  -30.7083 N   0  0  0  0  0  0  0  0  0  0  0  0
  -31.5615   19.6737  -29.6761 C   0  0  0  0  0  0  0  0  0  0  0  0
  -31.3000   18.2153  -27.1689 C   0  0  0  0  0  0  0  0  0  0  0  0
  -31.0807   17.3347  -26.1211 C   0  0  0  0  0  0  0  0  0  0  0  0
  -29.8108   17.0095  -25.6761 C   0  0  0  0  0  0  0  0  0  0  0  0
  -29.9350   16.1143  -24.6256 C   0  0  0  0  0  0  0  0  0  0  0  0
  -31.2569   15.9167  -24.4582 N   0  0  0  0  0  0  0  0  0  0  0  0
  -31.9257   16.6363  -25.3395 N   0  0  0  0  0  0  0  0  0  0  0  0
  -33.3817   16.7141  -25.5004 C   0  0  0  0  0  0  0  0  0  0  0  0
  -33.8967   17.9959  -24.8883 C   0  0  0  0  0  0  0  0  0  0  0  0
  -33.9936   15.5011  -24.8373 C   0  0  0  0  0  0  0  0  0  0  0  0
  1  2  1  0
  2  3  1  0
  3  4  1  0
  4  5  1  0
  5  6  2  0
  6  7  1  0
  6  8  1  0
  8  9  1  0
  9 10  2  0
  9 11  1  0
 11 12  1  0
 12 13  1  0
 13 14  1  0
 14 15  2  0
 14 16  1  0
 16 17  2  0
 17 18  1  0
 18 19  1  0
 19 20  2  0
 20 21  1  0
 21 22  2  0
 22 23  1  0
 23 24  1  0
 24 25  1  0
 25 26  1  0
 26 27  1  0
 27 28  1  0
 27 29  1  0
 26 30  1  0
 30 31  1  0
 22 32  1  0
 32 33  2  0
 18 34  2  0
 34 35  1  0
 35 36  2  0
 36 37  1  0
 37 38  2  0
 38 39  1  0
 39 40  1  0
 40 41  1  0
 40 42  1  0
 11  4  2  0
 36 16  1  0
 33 19  1  0
 39 35  1  0
 31 23  1  0
M  END
$$$$
