
     RDKit          3D

 21 23  0  0  0  0  0  0  0  0999 V2000
  -18.1289   40.2818  -19.4313 N   0  0  0  0  0  0  0  0  0  0  0  0
  -18.2350   40.2927  -20.5466 C   0  0  0  0  0  0  0  0  0  0  0  0
  -18.3872   40.3070  -22.0502 C   0  0  0  0  0  0  0  0  0  0  0  0
  -18.8074   39.2185  -22.6426 C   0  0  0  0  0  0  0  0  0  0  0  0
  -19.1738   37.9078  -22.1338 N   0  0  0  0  0  0  0  0  0  0  0  0
  -19.3045   36.7894  -22.9400 C   0  0  0  0  0  0  0  0  0  0  0  0
  -19.4560   36.9705  -24.1865 O   0  0  0  0  0  0  0  0  0  0  0  0
  -19.2712   35.4458  -22.3876 C   0  0  0  0  0  0  0  0  0  0  0  0
  -18.2335   35.0215  -21.6097 C   0  0  0  0  0  0  0  0  0  0  0  0
  -18.1927   33.7311  -21.0681 C   0  0  0  0  0  0  0  0  0  0  0  0
  -19.2635   32.9044  -21.3631 C   0  0  0  0  0  0  0  0  0  0  0  0
  -19.2133   31.6513  -20.8299 F   0  0  0  0  0  0  0  0  0  0  0  0
  -20.3063   33.3224  -22.1409 C   0  0  0  0  0  0  0  0  0  0  0  0
  -20.3418   34.5777  -22.6655 C   0  0  0  0  0  0  0  0  0  0  0  0
  -18.8565   39.6483  -24.3715 S   0  0  0  0  0  0  0  0  0  0  0  0
  -18.2927   41.2952  -24.1332 C   0  0  0  0  0  0  0  0  0  0  0  0
  -18.1024   41.4186  -22.7643 C   0  0  0  0  0  0  0  0  0  0  0  0
  -17.6108   42.7832  -22.3354 C   0  0  0  0  0  0  0  0  0  0  0  0
  -18.3321   43.8695  -23.0476 C   0  0  0  0  0  0  0  0  0  0  0  0
  -18.7630   43.6054  -24.4365 C   0  0  0  0  0  0  0  0  0  0  0  0
  -18.0165   42.4577  -25.0520 C   0  0  0  0  0  0  0  0  0  0  0  0
  1  2  3  0
  2  3  1  0
  3  4  2  0
  4  5  1  0
  5  6  1  0
  6  7  2  0
  6  8  1  0
  8  9  2  0
  9 10  1  0
 10 11  2  0
 11 12  1  0
 11 13  1  0
 13 14  2  0
  4 15  1  0
 15 16  1  0
 16 17  2  0
 17 18  1  0
 18 19  1  0
 19 20  1  0
 20 21  1  0
 17  3  1  0
 14  8  1  0
 21 16  1  0
M  END
$$$$
