
     RDKit          3D

 27 28  0  0  0  0  0  0  0  0999 V2000
  -19.0527   38.1785  -23.6769 Cl  0  0  0  0  0  0  0  0  0  0  0  0
  -19.0553   38.1807  -23.6816 Cl  0  0  0  0  0  0  0  0  0  0  0  0
  -20.9447   40.7255  -21.1606 N   0  0  0  0  0  0  0  0  0  0  0  0
  -19.8703   40.2771  -21.9668 C   0  0  0  0  0  0  0  0  0  0  0  0
  -18.7206   40.9931  -21.8752 N   0  0  0  0  0  0  0  0  0  0  0  0
  -17.6623   40.6209  -22.6141 C   0  0  0  0  0  0  0  0  0  0  0  0
  -17.7651   39.5189  -23.4510 C   0  0  0  0  0  0  0  0  0  0  0  0
  -18.9232   38.7808  -23.5565 C   0  0  0  0  0  0  0  0  0  0  0  0
  -19.0425   37.6262  -24.4151 C   0  0  0  0  0  0  0  0  0  0  0  0
  -18.5028   36.3876  -24.1650 C   0  0  0  0  0  0  0  0  0  0  0  0
  -17.7221   36.0102  -22.9987 C   0  0  0  0  0  0  0  0  0  0  0  0
  -16.4588   36.4672  -22.7092 C   0  0  0  0  0  0  0  0  0  0  0  0
  -15.7703   36.0749  -21.5814 C   0  0  0  0  0  0  0  0  0  0  0  0
  -16.3286   35.1919  -20.6797 C   0  0  0  0  0  0  0  0  0  0  0  0
  -15.6438   34.8005  -19.5562 F   0  0  0  0  0  0  0  0  0  0  0  0
  -17.5932   34.7226  -20.9520 C   0  0  0  0  0  0  0  0  0  0  0  0
  -18.2720   35.1226  -22.0837 C   0  0  0  0  0  0  0  0  0  0  0  0
  -18.8351   35.5728  -25.2122 N   0  0  0  0  0  0  0  0  0  0  0  0
  -19.5586   36.3188  -26.0652 C   0  0  0  0  0  0  0  0  0  0  0  0
  -19.6936   37.5771  -25.5907 N   0  0  0  0  0  0  0  0  0  0  0  0
  -20.3879   38.6570  -26.2052 C   0  0  0  0  0  0  0  0  0  0  0  0
  -19.6865   39.9852  -26.1731 C   0  0  0  0  0  0  0  0  0  0  0  0
  -20.3437   40.8520  -27.2444 C   0  0  0  0  0  0  0  0  0  0  0  0
  -21.5966   40.2627  -27.8000 C   0  0  0  0  0  0  0  0  0  0  0  0
  -22.5205   39.6532  -26.8029 C   0  0  0  0  0  0  0  0  0  0  0  0
  -21.7992   38.8634  -25.7303 C   0  0  0  0  0  0  0  0  0  0  0  0
  -19.9615   39.2123  -22.7788 N   0  0  0  0  0  0  0  0  0  0  0  0
  3  4  1  0
  4  5  2  0
  5  6  1  0
  6  7  2  0
  7  8  1  0
  8  9  1  0
  9 10  2  0
 10 11  1  0
 11 12  2  0
 12 13  1  0
 13 14  2  0
 14 15  1  0
 14 16  1  0
 16 17  2  0
 10 18  1  0
 18 19  2  0
 19 20  1  0
 20 21  1  0
 21 22  1  0
 22 23  1  0
 23 24  1  0
 24 25  1  0
 25 26  1  0
  8 27  2  0
 27  4  1  0
 20  9  1  0
 26 21  1  0
 17 11  1  0
M  END
$$$$
