
     RDKit          3D

 40 43  0  0  0  0  0  0  0  0999 V2000
  -15.0256   19.3257  -35.1659 C   0  0  0  0  0  0  0  0  0  0  0  0
  -14.6306   17.9147  -35.6296 C   0  0  0  0  0  0  0  0  0  0  0  0
  -14.3262   17.7885  -36.8551 O   0  0  0  0  0  0  0  0  0  0  0  0
  -14.0190   17.6602  -38.0915 C   0  0  0  0  0  0  0  0  0  0  0  0
  -12.7804   17.2332  -38.5986 C   0  0  0  0  0  0  0  0  0  0  0  0
  -12.5069   17.0979  -39.9291 C   0  0  0  0  0  0  0  0  0  0  0  0
  -11.2926   16.7163  -40.3815 N   0  0  0  0  0  0  0  0  0  0  0  0
  -10.9882   16.6159  -41.6890 C   0  0  0  0  0  0  0  0  0  0  0  0
  -11.9284   16.9052  -42.6374 C   0  0  0  0  0  0  0  0  0  0  0  0
  -11.6670   16.8622  -44.0135 C   0  0  0  0  0  0  0  0  0  0  0  0
  -11.4466   16.8411  -45.2051 N   0  0  0  0  0  0  0  0  0  0  0  0
  -13.2367   17.3089  -42.1954 C   0  0  0  0  0  0  0  0  0  0  0  0
  -14.1569   17.6217  -43.2247 N   0  0  0  0  0  0  0  0  0  0  0  0
  -15.1799   18.5848  -42.9859 C   0  0  0  0  0  0  0  0  0  0  0  0
  -16.5015   18.2821  -42.7725 C   0  0  0  0  0  0  0  0  0  0  0  0
  -17.4807   19.2502  -42.6776 C   0  0  0  0  0  0  0  0  0  0  0  0
  -17.1457   20.5726  -42.7931 C   0  0  0  0  0  0  0  0  0  0  0  0
  -17.9898   21.5973  -42.7403 O   0  0  0  0  0  0  0  0  0  0  0  0
  -19.2119   21.9485  -42.2449 C   0  0  0  0  0  0  0  0  0  0  0  0
  -19.8015   22.9383  -43.2044 C   0  0  0  0  0  0  0  0  0  0  0  0
  -20.4516   22.5119  -44.4239 C   0  0  0  0  0  0  0  0  0  0  0  0
  -20.9454   23.4889  -45.2325 C   0  0  0  0  0  0  0  0  0  0  0  0
  -20.9021   24.8390  -45.0204 C   0  0  0  0  0  0  0  0  0  0  0  0
  -20.2537   25.2109  -43.8034 C   0  0  0  0  0  0  0  0  0  0  0  0
  -19.7876   24.2409  -43.0502 N   0  0  0  0  0  0  0  0  0  0  0  0
  -15.7777   20.8804  -43.0043 C   0  0  0  0  0  0  0  0  0  0  0  0
  -15.3035   22.5599  -43.1476 Cl  0  0  0  0  0  0  0  0  0  0  0  0
  -14.8424   19.9394  -43.0918 C   0  0  0  0  0  0  0  0  0  0  0  0
  -13.4791   17.3910  -40.8593 C   0  0  0  0  0  0  0  0  0  0  0  0
  -14.7409   17.8276  -40.4156 C   0  0  0  0  0  0  0  0  0  0  0  0
  -14.9773   17.9528  -39.0972 C   0  0  0  0  0  0  0  0  0  0  0  0
  -16.2543   18.4302  -38.6011 N   0  0  0  0  0  0  0  0  0  0  0  0
  -17.3357   18.5519  -39.4797 C   0  0  0  0  0  0  0  0  0  0  0  0
  -17.1072   18.1096  -40.6951 O   0  0  0  0  0  0  0  0  0  0  0  0
  -18.6171   19.0964  -39.2048 C   0  0  0  0  0  0  0  0  0  0  0  0
  -19.7057   18.3487  -39.2978 C   0  0  0  0  0  0  0  0  0  0  0  0
  -20.6991   18.0723  -38.2654 C   0  0  0  0  0  0  0  0  0  0  0  0
  -21.8544   17.3360  -38.5837 N   0  0  0  0  0  0  0  0  0  0  0  0
  -21.7915   16.2309  -39.4530 C   0  0  0  0  0  0  0  0  0  0  0  0
  -22.6591   17.0716  -37.3703 C   0  0  0  0  0  0  0  0  0  0  0  0
  1  2  1  0
  2  3  1  0
  3  4  1  0
  4  5  2  0
  5  6  1  0
  6  7  2  0
  7  8  1  0
  8  9  2  0
  9 10  1  0
 10 11  3  0
  9 12  1  0
 12 13  1  0
 13 14  1  0
 14 15  2  0
 15 16  1  0
 16 17  2  0
 17 18  1  0
 18 19  1  0
 19 20  1  0
 20 21  2  0
 21 22  1  0
 22 23  2  0
 23 24  1  0
 24 25  2  0
 17 26  1  0
 26 27  1  0
 26 28  2  0
 12 29  2  0
 29 30  1  0
 30 31  2  0
 31 32  1  0
 32 33  1  0
 33 34  2  0
 33 35  1  0
 35 36  2  0
 36 37  1  0
 37 38  1  0
 38 39  1  0
 38 40  1  0
 31  4  1  0
 29  6  1  0
 28 14  1  0
 25 20  1  0
M  END
$$$$
