
     RDKit          3D

 19 19  0  0  0  0  0  0  0  0999 V2000
  -15.0763   42.0569  -21.3355 C   0  0  0  0  0  0  0  0  0  0  0  0
  -16.4381   41.6124  -20.7827 C   0  0  0  0  0  0  0  0  0  0  0  0
  -16.9429   40.6720  -21.6550 O   0  0  0  0  0  0  0  0  0  0  0  0
  -18.4838   40.1328  -21.2937 P   0  0  0  0  0  5  0  0  0  0  0  0
  -18.5418   39.4605  -19.7043 S   0  0  0  0  0  0  0  0  0  0  0  0
  -18.9417   38.8769  -22.3724 O   0  0  0  0  0  0  0  0  0  0  0  0
  -18.0301   37.8226  -22.2872 C   0  0  0  0  0  0  0  0  0  0  0  0
  -18.3437   36.7179  -23.2413 C   0  0  0  0  0  0  0  0  0  0  0  0
  -19.6259   41.3589  -21.4697 O   0  0  0  0  0  0  0  0  0  0  0  0
  -19.8418   42.1763  -22.5351 C   0  0  0  0  0  0  0  0  0  0  0  0
  -18.9724   42.4120  -23.5700 C   0  0  0  0  0  0  0  0  0  0  0  0
  -19.2968   43.2641  -24.6029 C   0  0  0  0  0  0  0  0  0  0  0  0
  -18.3051   43.4697  -25.6879 C   0  0  0  0  0  0  0  0  0  0  0  0
  -20.5001   43.8602  -24.5629 N   0  0  0  0  0  0  0  0  0  0  0  0
  -21.3806   43.6568  -23.5681 C   0  0  0  0  0  0  0  0  0  0  0  0
  -22.7196   44.3500  -23.5685 C   0  0  0  0  0  0  0  0  0  0  0  0
  -22.4544   45.8448  -23.4699 C   0  0  0  0  0  0  0  0  0  0  0  0
  -23.4897   43.9675  -22.3197 C   0  0  0  0  0  0  0  0  0  0  0  0
  -21.0374   42.8257  -22.5816 N   0  0  0  0  0  0  0  0  0  0  0  0
  1  2  1  0
  2  3  1  0
  3  4  1  0
  4  5  2  0
  4  6  1  0
  6  7  1  0
  7  8  1  0
  4  9  1  0
  9 10  1  0
 10 11  2  0
 11 12  1  0
 12 13  1  0
 12 14  2  0
 14 15  1  0
 15 16  1  0
 16 17  1  0
 16 18  1  0
 15 19  2  0
 19 10  1  0
M  END
$$$$
