
     RDKit          3D

 18 19  0  0  0  0  0  0  0  0999 V2000
  -18.2621   48.3253  -19.4604 C   0  0  0  0  0  0  0  0  0  0  0  0
  -17.1983   47.4651  -20.1423 C   0  0  0  0  0  0  0  0  0  0  0  0
  -17.7045   46.0268  -20.2242 C   0  0  0  0  0  0  0  0  0  0  0  0
  -16.8612   45.3321  -21.1127 O   0  0  0  0  0  0  0  0  0  0  0  0
  -17.1446   44.0471  -21.5617 C   0  0  0  0  0  0  0  0  0  0  0  0
  -16.4848   43.5164  -22.6564 C   0  0  0  0  0  0  0  0  0  0  0  0
  -16.7598   42.2460  -23.1099 C   0  0  0  0  0  0  0  0  0  0  0  0
  -17.7125   41.4369  -22.4900 C   0  0  0  0  0  0  0  0  0  0  0  0
  -17.9291   40.0913  -23.0151 C   0  0  0  0  0  0  0  0  0  0  0  0
  -17.9490   39.0119  -22.2703 C   0  0  0  0  0  0  0  0  0  0  0  0
  -18.1063   37.2835  -22.7897 S   0  0  0  0  0  0  0  0  0  0  0  0
  -17.4308   36.6098  -21.2634 C   0  0  0  0  0  0  0  0  0  0  0  0
  -16.9062   35.4706  -21.0868 O   0  0  0  0  0  0  0  0  0  0  0  0
  -17.6211   37.6450  -20.3106 N   0  0  0  0  0  0  0  0  0  0  0  0
  -17.8940   38.9088  -20.8253 C   0  0  0  0  0  0  0  0  0  0  0  0
  -18.0891   39.9299  -20.0578 O   0  0  0  0  0  0  0  0  0  0  0  0
  -18.3673   41.9638  -21.4015 C   0  0  0  0  0  0  0  0  0  0  0  0
  -18.0817   43.2494  -20.9520 C   0  0  0  0  0  0  0  0  0  0  0  0
  1  2  1  0
  2  3  1  0
  3  4  1  0
  4  5  1  0
  5  6  2  0
  6  7  1  0
  7  8  2  0
  8  9  1  0
  9 10  2  0
 10 11  1  0
 11 12  1  0
 12 13  2  0
 12 14  1  0
 14 15  1  0
 15 16  2  0
  8 17  1  0
 17 18  2  0
 18  5  1  0
 15 10  1  0
M  END
$$$$
