
     RDKit          3D

 17 18  0  0  0  0  0  0  0  0999 V2000
  -18.5217   37.9382  -22.7377 Cl  0  0  0  0  0  0  0  0  0  0  0  0
  -19.4828   32.3640  -22.1856 O   0  0  0  0  0  0  0  0  0  0  0  0
  -19.2644   33.6122  -22.3263 C   0  0  0  0  0  0  0  0  0  0  0  0
  -18.9156   34.4781  -21.2140 C   0  0  0  0  0  0  0  0  0  0  0  0
  -18.7650   35.7965  -21.8561 N   0  0  0  0  0  0  0  0  0  0  0  0
  -18.4280   37.0783  -21.3118 C   0  0  0  0  0  0  0  0  0  0  0  0
  -18.3848   38.1524  -22.3207 C   0  0  0  0  0  0  0  0  0  0  0  0
  -18.6302   38.0014  -23.6465 C   0  0  0  0  0  0  0  0  0  0  0  0
  -18.5562   39.1035  -24.5003 C   0  0  0  0  0  0  0  0  0  0  0  0
  -18.2401   40.3353  -24.0238 C   0  0  0  0  0  0  0  0  0  0  0  0
  -17.9858   40.5244  -22.6883 C   0  0  0  0  0  0  0  0  0  0  0  0
  -17.5792   42.1199  -22.0885 Cl  0  0  0  0  0  0  0  0  0  0  0  0
  -18.0607   39.4437  -21.8654 C   0  0  0  0  0  0  0  0  0  0  0  0
  -17.7421   39.6470  -20.1528 Cl  0  0  0  0  0  0  0  0  0  0  0  0
  -18.9569   36.7264  -24.1369 N   0  0  0  0  0  0  0  0  0  0  0  0
  -19.0204   35.6313  -23.2264 C   0  0  0  0  0  0  0  0  0  0  0  0
  -19.3104   34.3745  -23.5136 N   0  0  0  0  0  0  0  0  0  0  0  0
  2  3  2  0
  3  4  1  0
  4  5  1  0
  5  6  1  0
  6  7  1  0
  7  8  2  0
  8  9  1  0
  9 10  2  0
 10 11  1  0
 11 12  1  0
 11 13  2  0
 13 14  1  0
  8 15  1  0
 15 16  1  0
 16 17  2  0
 17  3  1  0
 16  5  1  0
 13  7  1  0
M  END
$$$$
