
     RDKit          3D

 37 39  0  0  0  0  0  0  0  0999 V2000
  -26.8857   15.2218  -28.3401 O   0  0  0  0  0  0  0  0  0  0  0  0
  -27.2026   15.7607  -29.4026 C   0  0  0  0  0  0  0  0  0  0  0  0
  -26.5010   15.5444  -30.6744 C   0  0  0  0  0  0  0  0  0  0  0  0
  -25.4696   14.7248  -30.7516 C   0  0  0  0  0  0  0  0  0  0  0  0
  -24.7221   14.4272  -31.9649 C   0  0  0  0  0  0  0  0  0  0  0  0
  -23.6785   13.5318  -32.0287 C   0  0  0  0  0  0  0  0  0  0  0  0
  -22.9860   13.2759  -33.2202 C   0  0  0  0  0  0  0  0  0  0  0  0
  -23.3285   13.9199  -34.3885 C   0  0  0  0  0  0  0  0  0  0  0  0
  -22.6673   13.6947  -35.5907 O   0  0  0  0  0  0  0  0  0  0  0  0
  -24.3733   14.8185  -34.3316 C   0  0  0  0  0  0  0  0  0  0  0  0
  -24.7331   15.4773  -35.4986 O   0  0  0  0  0  0  0  0  0  0  0  0
  -25.0540   15.0693  -33.1584 C   0  0  0  0  0  0  0  0  0  0  0  0
  -28.2782   16.6209  -29.4142 O   0  0  0  0  0  0  0  0  0  0  0  0
  -29.0549   16.9071  -28.2691 C   0  0  2  0  0  0  0  0  0  0  0  0
  -30.3563   16.1306  -28.4676 C   0  0  0  0  0  0  0  0  0  0  0  0
  -31.2678   16.2737  -27.2738 C   0  0  2  0  0  0  0  0  0  0  0  0
  -30.6650   15.6711  -26.1741 O   0  0  0  0  0  0  0  0  0  0  0  0
  -32.4964   15.4927  -27.5755 C   0  0  0  0  0  0  0  0  0  0  0  0
  -32.7254   14.4412  -26.8898 O   0  0  0  0  0  0  0  0  0  0  0  0
  -33.4056   15.8219  -28.5415 O   0  0  0  0  0  0  0  0  0  0  0  0
  -31.5398   17.7322  -27.0687 C   0  0  0  0  0  0  0  0  0  0  0  0
  -30.8482   18.5896  -28.1059 C   0  0  1  0  0  0  0  0  0  0  0  0
  -31.0320   19.9284  -27.6895 O   0  0  0  0  0  0  0  0  0  0  0  0
  -29.3476   18.3641  -28.1059 C   0  0  1  0  0  0  0  0  0  0  0  0
  -28.8716   18.8702  -26.8527 O   0  0  0  0  0  0  0  0  0  0  0  0
  -28.2794   20.1048  -26.7357 C   0  0  0  0  0  0  0  0  0  0  0  0
  -28.9106   21.0149  -26.1517 O   0  0  0  0  0  0  0  0  0  0  0  0
  -26.9443   20.4115  -27.2604 C   0  0  0  0  0  0  0  0  0  0  0  0
  -25.8537   20.1901  -26.5892 C   0  0  0  0  0  0  0  0  0  0  0  0
  -24.5302   20.5270  -27.0920 C   0  0  0  0  0  0  0  0  0  0  0  0
  -24.3933   21.1176  -28.3596 C   0  0  0  0  0  0  0  0  0  0  0  0
  -23.1753   21.4597  -28.8923 C   0  0  0  0  0  0  0  0  0  0  0  0
  -22.0214   21.2261  -28.1774 C   0  0  0  0  0  0  0  0  0  0  0  0
  -20.8091   21.5893  -28.7574 O   0  0  0  0  0  0  0  0  0  0  0  0
  -22.1336   20.6547  -26.9475 C   0  0  0  0  0  0  0  0  0  0  0  0
  -20.9725   20.4114  -26.2103 O   0  0  0  0  0  0  0  0  0  0  0  0
  -23.3539   20.3156  -26.4217 C   0  0  0  0  0  0  0  0  0  0  0  0
  1  2  2  0
  2  3  1  0
  3  4  2  0
  4  5  1  0
  5  6  2  0
  6  7  1  0
  7  8  2  0
  8  9  1  0
  8 10  1  0
 10 11  1  0
 10 12  2  0
  2 13  1  0
 14 13  1  6
 14 15  1  0
 15 16  1  0
 16 17  1  1
 16 18  1  0
 18 19  2  0
 18 20  1  0
 16 21  1  0
 21 22  1  0
 22 23  1  1
 22 24  1  0
 24 25  1  1
 25 26  1  0
 26 27  2  0
 26 28  1  0
 28 29  2  0
 29 30  1  0
 30 31  2  0
 31 32  1  0
 32 33  2  0
 33 34  1  0
 33 35  1  0
 35 36  1  0
 35 37  2  0
 12  5  1  0
 24 14  1  0
 37 30  1  0
M  END
$$$$
