
     RDKit          3D

 29 32  0  0  0  0  0  0  0  0999 V2000
  -11.0350   15.7047  -39.1811 C   0  0  0  0  0  0  0  0  0  0  0  0
  -12.1465   15.8644  -38.2723 N   0  0  0  0  0  0  0  0  0  0  0  0
  -13.2628   16.6579  -38.6404 C   0  0  0  0  0  0  0  0  0  0  0  0
  -13.3223   17.3153  -39.8080 N   0  0  0  0  0  0  0  0  0  0  0  0
  -14.3996   18.0817  -40.1569 C   0  0  0  0  0  0  0  0  0  0  0  0
  -14.4309   18.7332  -41.4057 N   0  0  0  0  0  0  0  0  0  0  0  0
  -13.7442   18.3008  -42.5445 C   0  0  0  0  0  0  0  0  0  0  0  0
  -12.7052   17.4157  -42.5610 C   0  0  0  0  0  0  0  0  0  0  0  0
  -12.1058   17.0311  -43.7614 C   0  0  0  0  0  0  0  0  0  0  0  0
  -12.5013   17.4995  -44.9765 C   0  0  0  0  0  0  0  0  0  0  0  0
  -11.9278   17.1055  -46.2583 C   0  0  0  0  0  0  0  0  0  0  0  0
  -12.4932   16.1495  -46.8891 O   0  0  0  0  0  0  0  0  0  0  0  0
  -10.8003   17.6995  -46.8510 N   0  0  0  0  0  0  0  0  0  0  0  0
  -10.2985   17.1718  -48.1061 C   0  0  0  0  0  0  0  0  0  0  0  0
   -9.2050   18.1702  -48.5274 C   0  0  0  0  0  0  0  0  0  0  0  0
   -8.2592   18.1401  -47.5108 O   0  0  0  0  0  0  0  0  0  0  0  0
   -8.6779   18.8344  -46.3792 C   0  0  0  0  0  0  0  0  0  0  0  0
  -10.1691   18.8237  -46.1874 C   0  0  0  0  0  0  0  0  0  0  0  0
  -13.5738   18.4128  -44.9428 C   0  0  0  0  0  0  0  0  0  0  0  0
  -14.1789   18.8052  -43.7833 C   0  0  0  0  0  0  0  0  0  0  0  0
  -15.2194   19.6929  -43.7820 O   0  0  0  0  0  0  0  0  0  0  0  0
  -15.6525   20.3904  -44.8990 C   0  0  0  0  0  0  0  0  0  0  0  0
  -15.4095   18.1654  -39.2981 N   0  0  0  0  0  0  0  0  0  0  0  0
  -15.4548   17.5539  -38.1092 C   0  0  0  0  0  0  0  0  0  0  0  0
  -16.3145   17.4805  -37.1039 N   0  0  0  0  0  0  0  0  0  0  0  0
  -15.8279   16.6893  -36.1112 C   0  0  0  0  0  0  0  0  0  0  0  0
  -14.5787   16.2133  -36.4804 C   0  0  0  0  0  0  0  0  0  0  0  0
  -13.5338   15.1585  -35.5569 Cl  0  0  0  0  0  0  0  0  0  0  0  0
  -14.3117   16.7326  -37.7235 C   0  0  0  0  0  0  0  0  0  0  0  0
  1  2  1  0
  2  3  1  0
  3  4  1  0
  4  5  1  0
  5  6  1  0
  6  7  1  0
  7  8  2  0
  8  9  1  0
  9 10  2  0
 10 11  1  0
 11 12  2  0
 11 13  1  0
 13 14  1  0
 14 15  1  0
 15 16  1  0
 16 17  1  0
 17 18  1  0
 10 19  1  0
 19 20  2  0
 20 21  1  0
 21 22  1  0
  5 23  2  0
 23 24  1  0
 24 25  2  0
 25 26  1  0
 26 27  2  0
 27 28  1  0
 27 29  1  0
 29  3  2  0
 20  7  1  0
 29 24  1  0
 18 13  1  0
M  END
$$$$
