
     RDKit          3D

 21 22  0  0  0  0  0  0  0  0999 V2000
  -16.1563   35.2387  -21.9186 C   0  0  0  0  0  0  0  0  0  0  0  0
  -17.6354   35.1276  -22.1449 C   0  0  0  0  0  0  0  0  0  0  0  0
  -18.4371   34.1504  -21.8033 O   0  0  0  0  0  0  0  0  0  0  0  0
  -19.6769   34.3732  -22.1531 C   0  0  0  0  0  0  0  0  0  0  0  0
  -20.8491   33.5320  -21.9508 C   0  0  0  0  0  0  0  0  0  0  0  0
  -21.9815   33.9773  -22.2391 O   0  0  0  0  0  0  0  0  0  0  0  0
  -20.7474   32.2511  -21.4475 O   0  0  0  0  0  0  0  0  0  0  0  0
  -19.6673   35.6178  -22.7817 C   0  0  0  0  0  0  0  0  0  0  0  0
  -18.3830   36.1108  -22.7856 C   0  0  0  0  0  0  0  0  0  0  0  0
  -17.9530   37.3912  -23.3486 C   0  0  0  0  0  0  0  0  0  0  0  0
  -18.8180   38.8076  -22.6251 S   0  0  0  0  0  0  0  0  0  0  0  0
  -18.0350   39.3479  -21.1038 C   0  0  0  0  0  0  0  0  0  0  0  0
  -17.5434   40.7297  -21.1465 C   0  0  0  0  0  0  0  0  0  0  0  0
  -17.3577   41.5715  -20.0899 C   0  0  0  0  0  0  0  0  0  0  0  0
  -16.8786   42.7790  -20.5982 C   0  0  0  0  0  0  0  0  0  0  0  0
  -16.5314   43.9791  -19.8657 C   0  0  0  0  0  0  0  0  0  0  0  0
  -16.4824   43.9510  -18.6219 O   0  0  0  0  0  0  0  0  0  0  0  0
  -16.2547   45.1508  -20.5327 O   0  0  0  0  0  0  0  0  0  0  0  0
  -16.8060   42.5740  -21.9748 C   0  0  0  0  0  0  0  0  0  0  0  0
  -16.3471   43.5756  -22.9773 C   0  0  0  0  0  0  0  0  0  0  0  0
  -17.2071   41.3552  -22.2471 O   0  0  0  0  0  0  0  0  0  0  0  0
  1  2  1  0
  2  3  1  0
  3  4  1  0
  4  5  1  0
  5  6  2  0
  5  7  1  0
  4  8  2  0
  8  9  1  0
  9 10  1  0
 10 11  1  0
 11 12  1  0
 12 13  1  0
 13 14  2  0
 14 15  1  0
 15 16  1  0
 16 17  2  0
 16 18  1  0
 15 19  2  0
 19 20  1  0
 19 21  1  0
  9  2  2  0
 21 13  1  0
M  END
$$$$
