
     RDKit          3D

 33 35  0  0  0  0  0  0  0  0999 V2000
  -23.5623   13.7446  -36.9161 C   0  0  0  0  0  0  0  0  0  0  0  0
  -23.4230   14.1182  -38.3078 N   0  0  0  0  0  0  0  0  0  0  0  0
  -22.8351   15.4702  -38.3003 C   0  0  0  0  0  0  0  0  0  0  0  0
  -22.6570   15.8910  -39.7137 C   0  0  0  0  0  0  0  0  0  0  0  0
  -22.1076   17.2264  -39.7958 N   0  0  0  0  0  0  0  0  0  0  0  0
  -23.1780   18.1177  -39.3234 C   0  0  0  0  0  0  0  0  0  0  0  0
  -20.9980   17.2996  -38.8258 C   0  0  0  0  0  0  0  0  0  0  0  0
  -20.2956   18.5839  -39.0599 C   0  0  0  0  0  0  0  0  0  0  0  0
  -20.5954   19.5434  -40.0193 C   0  0  0  0  0  0  0  0  0  0  0  0
  -19.7148   20.5454  -39.9082 N   0  0  0  0  0  0  0  0  0  0  0  0
  -18.8942   20.2452  -38.9307 N   0  0  0  0  0  0  0  0  0  0  0  0
  -19.2127   19.0467  -38.3779 C   0  0  0  0  0  0  0  0  0  0  0  0
  -18.4928   18.3901  -37.2740 C   0  0  0  0  0  0  0  0  0  0  0  0
  -17.1125   18.2955  -37.3523 C   0  0  0  0  0  0  0  0  0  0  0  0
  -16.3594   17.7071  -36.3576 C   0  0  0  0  0  0  0  0  0  0  0  0
  -16.9520   17.1810  -35.2293 C   0  0  0  0  0  0  0  0  0  0  0  0
  -16.2890   16.5773  -34.1900 O   0  0  0  0  0  0  0  0  0  0  0  0
  -14.8950   16.3823  -34.1188 C   0  0  1  0  0  0  0  0  0  0  0  0
  -14.3196   16.7601  -32.7427 C   0  0  0  0  0  0  0  0  0  0  0  0
  -15.0411   15.4864  -32.2781 C   0  0  2  0  0  0  0  0  0  0  0  0
  -14.4890   14.8742  -31.1925 O   0  0  0  0  0  0  0  0  0  0  0  0
  -15.4761   14.6441  -30.2609 C   0  0  0  0  0  0  0  0  0  0  0  0
  -15.1056   13.9938  -28.9935 C   0  0  0  0  0  0  0  0  0  0  0  0
  -14.5523   12.6160  -29.1493 C   0  0  0  0  0  0  0  0  0  0  0  0
  -14.2399   12.0240  -27.7449 C   0  0  0  0  0  0  0  0  0  0  0  0
  -12.8041   12.3114  -27.4479 C   0  0  0  0  0  0  0  0  0  0  0  0
  -12.4391   13.5729  -27.8720 O   0  0  0  0  0  0  0  0  0  0  0  0
  -12.2956   13.5522  -29.2716 C   0  0  0  0  0  0  0  0  0  0  0  0
  -13.2679   12.6421  -29.9413 C   0  0  0  0  0  0  0  0  0  0  0  0
  -14.6732   14.9405  -33.6432 C   0  0  0  0  0  0  0  0  0  0  0  0
  -18.3244   17.2734  -35.1475 C   0  0  0  0  0  0  0  0  0  0  0  0
  -19.0964   17.8712  -36.1556 C   0  0  0  0  0  0  0  0  0  0  0  0
  -18.2620   15.7478  -34.9592 Cl  0  0  0  0  0  0  0  0  0  0  0  0
  1  2  1  0
  2  3  1  0
  3  4  1  0
  4  5  1  0
  5  6  1  0
  5  7  1  0
  7  8  1  0
  8  9  2  0
  9 10  1  0
 10 11  1  0
 11 12  2  0
 12 13  1  0
 13 14  2  0
 14 15  1  0
 15 16  2  0
 16 17  1  0
 18 17  1  1
 18 19  1  0
 19 20  1  0
 20 21  1  1
 21 22  1  0
 22 23  1  0
 23 24  1  0
 24 25  1  0
 25 26  1  0
 26 27  1  0
 27 28  1  0
 28 29  1  0
 20 30  1  0
 16 31  1  0
 31 32  2  0
 12  8  1  0
 32 13  1  0
 30 18  1  0
 29 24  1  0
M  END
$$$$
