
     RDKit          3D

 14 13  0  0  0  0  0  0  0  0999 V2000
  -21.7736   20.1372  -37.4070 C   0  0  0  0  0  0  0  0  0  0  0  0
  -21.5547   19.2742  -36.2142 C   0  0  0  0  0  0  0  0  0  0  0  0
  -21.9360   19.9295  -34.9096 C   0  0  0  0  0  0  0  0  0  0  0  0
  -21.7164   19.0528  -33.7245 C   0  0  0  0  0  0  0  0  0  0  0  0
  -22.0473   19.7688  -32.4539 C   0  0  0  0  0  0  0  0  0  0  0  0
  -23.4514   20.2671  -32.3764 C   0  0  0  0  0  0  0  0  0  0  0  0
  -23.9645   20.3487  -30.9488 C   0  0  0  0  0  0  0  0  0  0  0  0
  -25.2646   19.5832  -30.9278 C   0  0  0  0  0  0  0  0  0  0  0  0
  -25.3564   18.5324  -29.8702 C   0  0  0  0  0  0  0  0  0  0  0  0
  -26.5219   18.7960  -28.9516 C   0  0  0  0  0  0  0  0  0  0  0  0
  -26.8247   17.6831  -28.0023 C   0  0  0  0  0  0  0  0  0  0  0  0
  -27.9152   17.9452  -27.0690 C   0  0  0  0  0  0  0  0  0  0  0  0
  -28.7636   17.0632  -26.8226 O   0  0  0  0  0  0  0  0  0  0  0  0
  -28.0161   19.1753  -26.4501 O   0  0  0  0  0  0  0  0  0  0  0  0
  1  2  1  0
  2  3  1  0
  3  4  1  0
  4  5  1  0
  5  6  1  0
  6  7  1  0
  7  8  1  0
  8  9  1  0
  9 10  1  0
 10 11  1  0
 11 12  1  0
 12 13  2  0
 12 14  1  0
M  END
$$$$
