
     RDKit          3D

 51 57  0  0  0  0  0  0  0  0999 V2000
  -16.2733   -3.9478  -25.7217 C   0  0  0  0  0  0  0  0  0  0  0  0
  -15.7295   -4.5524  -24.5698 N   0  0  0  0  0  0  0  0  0  0  0  0
  -15.2345   -3.7525  -23.5254 C   0  0  1  0  0  0  0  0  0  0  0  0
  -16.2596   -3.5073  -22.4245 C   0  0  0  0  0  0  0  0  0  0  0  0
  -17.4443   -2.7600  -22.9021 C   0  0  0  0  0  0  0  0  0  0  0  0
  -18.6700   -3.3855  -22.9423 C   0  0  0  0  0  0  0  0  0  0  0  0
  -19.8103   -2.7479  -23.3836 C   0  0  0  0  0  0  0  0  0  0  0  0
  -19.7271   -1.4548  -23.7951 C   0  0  0  0  0  0  0  0  0  0  0  0
  -20.8975   -0.8431  -24.2335 O   0  0  0  0  0  0  0  0  0  0  0  0
  -21.6070    0.3238  -23.1981 S   0  0  0  0  0  6  0  0  0  0  0  0
  -20.5408    1.1684  -22.5979 O   0  0  0  0  0  0  0  0  0  0  0  0
  -22.5135    1.1955  -24.0082 O   0  0  0  0  0  0  0  0  0  0  0  0
  -22.4715   -0.4764  -21.8976 C   0  0  0  0  0  0  0  0  0  0  0  0
  -22.1049   -0.3283  -20.5851 C   0  0  0  0  0  0  0  0  0  0  0  0
  -22.8036   -0.9696  -19.5874 C   0  0  0  0  0  0  0  0  0  0  0  0
  -23.8891   -1.7771  -19.8746 C   0  0  0  0  0  0  0  0  0  0  0  0
  -24.2631   -1.9314  -21.1793 C   0  0  0  0  0  0  0  0  0  0  0  0
  -25.3388   -2.7282  -21.5033 C   0  0  0  0  0  0  0  0  0  0  0  0
  -25.6955   -2.8720  -22.7865 N   0  0  0  0  0  0  0  0  0  0  0  0
  -25.0044   -2.2379  -23.7719 C   0  0  0  0  0  0  0  0  0  0  0  0
  -23.9303   -1.4376  -23.4970 C   0  0  0  0  0  0  0  0  0  0  0  0
  -23.5475   -1.2769  -22.1820 C   0  0  0  0  0  0  0  0  0  0  0  0
  -18.5176   -0.7997  -23.7683 C   0  0  0  0  0  0  0  0  0  0  0  0
  -17.3646   -1.4539  -23.3190 C   0  0  0  0  0  0  0  0  0  0  0  0
  -14.0617   -4.4101  -22.8950 C   0  0  0  0  0  0  0  0  0  0  0  0
  -14.2428   -5.6303  -22.5379 O   0  0  0  0  0  0  0  0  0  0  0  0
  -12.8102   -3.8258  -22.6668 N   0  0  0  0  0  0  0  0  0  0  0  0
  -11.9832   -4.3444  -21.5778 C   0  0  0  0  0  0  0  0  0  0  0  0
  -11.7000   -3.2100  -20.6386 C   0  0  0  0  0  0  0  0  0  0  0  0
  -11.3779   -1.9545  -21.2737 N   0  0  0  0  0  0  0  0  0  0  0  0
  -10.4795   -1.1039  -20.5262 C   0  0  0  0  0  0  0  0  0  0  0  0
   -9.9309    0.0446  -21.0327 C   0  0  0  0  0  0  0  0  0  0  0  0
   -9.0767    0.8579  -20.2782 C   0  0  0  0  0  0  0  0  0  0  0  0
   -8.7688    0.5143  -18.9974 C   0  0  0  0  0  0  0  0  0  0  0  0
   -9.2890   -0.6163  -18.4504 C   0  0  0  0  0  0  0  0  0  0  0  0
  -10.1325   -1.4096  -19.2115 C   0  0  0  0  0  0  0  0  0  0  0  0
  -11.9268   -1.5651  -22.5266 C   0  0  0  0  0  0  0  0  0  0  0  0
  -12.2094   -2.7496  -23.4145 C   0  0  0  0  0  0  0  0  0  0  0  0
  -15.4539   -6.2024  -24.5677 S   0  0  0  0  0  6  0  0  0  0  0  0
  -15.2366   -6.6254  -23.1162 O   0  0  0  0  0  0  0  0  0  0  0  0
  -16.6598   -7.0133  -24.9975 O   0  0  0  0  0  0  0  0  0  0  0  0
  -14.0229   -6.7186  -25.4444 C   0  0  0  0  0  0  0  0  0  0  0  0
  -12.8261   -5.9938  -25.3893 C   0  0  0  0  0  0  0  0  0  0  0  0
  -11.6906   -6.3384  -26.0483 C   0  0  0  0  0  0  0  0  0  0  0  0
  -11.6837   -7.4690  -26.8301 C   0  0  0  0  0  0  0  0  0  0  0  0
  -12.8419   -8.2246  -26.9205 C   0  0  0  0  0  0  0  0  0  0  0  0
  -12.8873   -9.3711  -27.6914 C   0  0  0  0  0  0  0  0  0  0  0  0
  -14.0056  -10.1091  -27.7819 N   0  0  0  0  0  0  0  0  0  0  0  0
  -15.1223   -9.7681  -27.1317 C   0  0  0  0  0  0  0  0  0  0  0  0
  -15.0950   -8.6240  -26.3560 C   0  0  0  0  0  0  0  0  0  0  0  0
  -13.9781   -7.8449  -26.2370 C   0  0  0  0  0  0  0  0  0  0  0  0
  1  2  1  0
  2  3  1  0
  3  4  1  1
  4  5  1  0
  5  6  2  0
  6  7  1  0
  7  8  2  0
  8  9  1  0
  9 10  1  0
 10 11  2  0
 10 12  2  0
 10 13  1  0
 13 14  2  0
 14 15  1  0
 15 16  2  0
 16 17  1  0
 17 18  2  0
 18 19  1  0
 19 20  2  0
 20 21  1  0
 21 22  2  0
  8 23  1  0
 23 24  2  0
  3 25  1  0
 25 26  2  0
 25 27  1  0
 27 28  1  0
 28 29  1  0
 29 30  1  0
 30 31  1  0
 31 32  2  0
 32 33  1  0
 33 34  2  0
 34 35  1  0
 35 36  2  0
 30 37  1  0
 37 38  1  0
  2 39  1  0
 39 40  2  0
 39 41  2  0
 39 42  1  0
 42 43  2  0
 43 44  1  0
 44 45  2  0
 45 46  1  0
 46 47  2  0
 47 48  1  0
 48 49  2  0
 49 50  1  0
 50 51  2  0
 24  5  1  0
 38 27  1  0
 51 42  1  0
 22 13  1  0
 36 31  1  0
 51 46  1  0
 22 17  1  0
M  END
$$$$
