
     RDKit          3D

 22 23  0  0  0  0  0  0  0  0999 V2000
  -18.3913   39.2951  -22.3300 Cl  0  0  0  0  0  0  0  0  0  0  0  0
  -17.1323   37.1613  -20.5983 O   0  0  0  0  0  0  0  0  0  0  0  0
  -17.2745   38.0775  -21.7784 S   0  0  0  0  0  6  0  0  0  0  0  0
  -15.9819   38.0206  -22.5360 O   0  0  0  0  0  0  0  0  0  0  0  0
  -17.5501   39.6788  -21.2429 C   0  0  0  0  0  0  0  0  0  0  0  0
  -17.6330   39.9523  -19.9001 C   0  0  0  0  0  0  0  0  0  0  0  0
  -17.8550   41.2317  -19.4103 C   0  0  0  0  0  0  0  0  0  0  0  0
  -17.9996   42.2760  -20.2911 C   0  0  0  0  0  0  0  0  0  0  0  0
  -17.9153   41.9970  -21.6498 C   0  0  0  0  0  0  0  0  0  0  0  0
  -18.0554   43.0230  -22.5808 C   0  0  0  0  0  0  0  0  0  0  0  0
  -18.3932   44.9869  -21.9338 I   0  0  0  0  0  0  0  0  0  0  0  0
  -17.9740   42.7603  -23.9324 C   0  0  0  0  0  0  0  0  0  0  0  0
  -17.7523   41.4736  -24.3693 C   0  0  0  0  0  0  0  0  0  0  0  0
  -17.6085   40.4336  -23.4858 C   0  0  0  0  0  0  0  0  0  0  0  0
  -17.6927   40.7113  -22.1250 C   0  0  0  0  0  0  0  0  0  0  0  0
  -18.5189   37.4436  -22.7819 N   0  0  0  0  0  0  0  0  0  0  0  0
  -19.7747   37.3509  -22.1879 C   0  0  0  0  0  0  0  0  0  0  0  0
  -20.6951   36.2807  -22.6807 C   0  0  0  0  0  0  0  0  0  0  0  0
  -20.0889   34.9193  -22.7002 C   0  0  0  0  0  0  0  0  0  0  0  0
  -19.5777   34.6333  -23.9988 N   0  0  0  0  0  0  0  0  0  0  0  0
  -18.8739   35.7523  -24.5391 C   0  0  0  0  0  0  0  0  0  0  0  0
  -17.9937   36.3321  -23.4762 C   0  0  0  0  0  0  0  0  0  0  0  0
  2  3  2  0
  3  4  2  0
  3  5  1  0
  5  6  2  0
  6  7  1  0
  7  8  2  0
  8  9  1  0
  9 10  2  0
 10 11  1  0
 10 12  1  0
 12 13  2  0
 13 14  1  0
 14 15  2  0
  3 16  1  0
 16 17  1  0
 17 18  1  0
 18 19  1  0
 19 20  1  0
 20 21  1  0
 21 22  1  0
 15  5  1  0
 22 16  1  0
 15  9  1  0
M  END
$$$$
