
     RDKit          3D

 20 22  0  0  0  0  0  0  0  0999 V2000
  -14.9088   17.3372  -34.7912 C   0  0  0  0  0  0  0  0  0  0  0  0
  -15.6494   16.8155  -33.7118 O   0  0  0  0  0  0  0  0  0  0  0  0
  -15.1902   15.7754  -32.9340 C   0  0  0  0  0  0  0  0  0  0  0  0
  -13.9044   15.2990  -33.0398 C   0  0  0  0  0  0  0  0  0  0  0  0
  -13.4470   14.2580  -32.2603 C   0  0  0  0  0  0  0  0  0  0  0  0
  -14.3006   13.6892  -31.3603 C   0  0  0  0  0  0  0  0  0  0  0  0
  -13.7274   12.3626  -30.3629 Cl  0  0  0  0  0  0  0  0  0  0  0  0
  -15.5908   14.1382  -31.2269 C   0  0  0  0  0  0  0  0  0  0  0  0
  -16.0221   15.1802  -32.0186 C   0  0  0  0  0  0  0  0  0  0  0  0
  -17.3768   15.5962  -31.8265 N   0  0  0  0  0  0  0  0  0  0  0  0
  -18.4184   14.7136  -31.4270 C   0  0  0  0  0  0  0  0  0  0  0  0
  -18.0495   13.6418  -30.8810 O   0  0  0  0  0  0  0  0  0  0  0  0
  -19.8295   15.0122  -31.6278 C   0  0  0  0  0  0  0  0  0  0  0  0
  -20.9149   14.5084  -30.9614 C   0  0  0  0  0  0  0  0  0  0  0  0
  -22.0086   15.1063  -31.5272 C   0  0  0  0  0  0  0  0  0  0  0  0
  -23.4470   14.9356  -31.2002 C   0  0  0  0  0  0  0  0  0  0  0  0
  -24.4104   14.4734  -32.2204 C   0  0  0  0  0  0  0  0  0  0  0  0
  -24.3718   15.9382  -31.9608 C   0  0  0  0  0  0  0  0  0  0  0  0
  -21.5651   15.9022  -32.4599 O   0  0  0  0  0  0  0  0  0  0  0  0
  -20.2978   15.8651  -32.5382 N   0  0  0  0  0  0  0  0  0  0  0  0
  1  2  1  0
  2  3  1  0
  3  4  2  0
  4  5  1  0
  5  6  2  0
  6  7  1  0
  6  8  1  0
  8  9  2  0
  9 10  1  0
 10 11  1  0
 11 12  2  0
 11 13  1  0
 13 14  1  0
 14 15  2  0
 15 16  1  0
 16 17  1  0
 17 18  1  0
 15 19  1  0
 19 20  1  0
  9  3  1  0
 20 13  2  0
 18 16  1  0
M  END
$$$$
