
     RDKit          3D

 30 33  0  0  0  0  0  0  0  0999 V2000
  -23.9460   28.1385  -36.3006 N   0  0  0  0  0  0  0  0  0  0  0  0
  -24.1168   26.7039  -36.2009 C   0  0  0  0  0  0  0  0  0  0  0  0
  -23.2209   26.0017  -37.1934 C   0  0  0  0  0  0  0  0  0  0  0  0
  -22.5403   26.6643  -38.0183 O   0  0  0  0  0  0  0  0  0  0  0  0
  -23.1482   24.5807  -37.1930 N   0  0  0  0  0  0  0  0  0  0  0  0
  -22.2179   23.9282  -38.0610 C   0  0  1  0  0  0  0  0  0  0  0  0
  -21.6576   22.7055  -37.3481 C   0  0  0  0  0  0  0  0  0  0  0  0
  -20.5839   22.0053  -38.1151 C   0  0  0  0  0  0  0  0  0  0  0  0
  -20.9471   20.7770  -38.6365 O   0  0  0  0  0  0  0  0  0  0  0  0
  -22.7328   23.6510  -39.3969 C   0  0  0  0  0  0  0  0  0  0  0  0
  -21.9568   23.8491  -40.5172 C   0  0  0  0  0  0  0  0  0  0  0  0
  -22.4401   23.5753  -41.7953 C   0  0  0  0  0  0  0  0  0  0  0  0
  -23.7177   23.0952  -41.9735 C   0  0  0  0  0  0  0  0  0  0  0  0
  -24.3499   22.7421  -43.5831 Cl  0  0  0  0  0  0  0  0  0  0  0  0
  -24.5009   22.8937  -40.8617 C   0  0  0  0  0  0  0  0  0  0  0  0
  -23.9969   23.1738  -39.5973 C   0  0  0  0  0  0  0  0  0  0  0  0
  -23.7194   26.2761  -34.8161 C   0  0  0  0  0  0  0  0  0  0  0  0
  -24.7775   26.5318  -33.7839 C   0  0  0  0  0  0  0  0  0  0  0  0
  -26.1103   26.3891  -34.2598 N   0  0  0  0  0  0  0  0  0  0  0  0
  -27.0939   25.8012  -33.4014 C   0  0  0  0  0  0  0  0  0  0  0  0
  -28.3154   26.3565  -33.3328 N   0  0  0  0  0  0  0  0  0  0  0  0
  -29.2583   25.8437  -32.5463 C   0  0  0  0  0  0  0  0  0  0  0  0
  -29.0428   24.7549  -31.7864 N   0  0  0  0  0  0  0  0  0  0  0  0
  -27.8254   24.1796  -31.8378 C   0  0  0  0  0  0  0  0  0  0  0  0
  -27.2979   23.1114  -31.2228 N   0  0  0  0  0  0  0  0  0  0  0  0
  -26.0251   22.9182  -31.5954 C   0  0  0  0  0  0  0  0  0  0  0  0
  -25.7046   23.9054  -32.4957 C   0  0  0  0  0  0  0  0  0  0  0  0
  -26.8150   24.6964  -32.6551 C   0  0  0  0  0  0  0  0  0  0  0  0
  -26.5518   26.8052  -35.5789 C   0  0  0  0  0  0  0  0  0  0  0  0
  -25.5184   26.3565  -36.5644 C   0  0  0  0  0  0  0  0  0  0  0  0
  1  2  1  0
  2  3  1  0
  3  4  2  0
  3  5  1  0
  5  6  1  0
  6  7  1  1
  7  8  1  0
  8  9  1  0
  6 10  1  0
 10 11  2  0
 11 12  1  0
 12 13  2  0
 13 14  1  0
 13 15  1  0
 15 16  2  0
  2 17  1  0
 17 18  1  0
 18 19  1  0
 19 20  1  0
 20 21  2  0
 21 22  1  0
 22 23  2  0
 23 24  1  0
 24 25  1  0
 25 26  1  0
 26 27  2  0
 27 28  1  0
 19 29  1  0
 29 30  1  0
 30  2  1  0
 16 10  1  0
 28 20  1  0
 28 24  2  0
M  END
$$$$
