
     RDKit          3D

 17 18  0  0  0  0  0  0  0  0999 V2000
  -25.0171   18.5764  -30.3518 O   0  0  0  0  0  0  0  0  0  0  0  0
  -25.1187   19.7113  -29.7755 C   0  0  0  0  0  0  0  0  0  0  0  0
  -25.6625   19.8300  -28.4650 N   0  0  0  0  0  0  0  0  0  0  0  0
  -26.3872   18.7390  -27.8997 C   0  0  0  0  0  0  0  0  0  0  0  0
  -27.6644   18.9843  -27.4195 C   0  0  0  0  0  0  0  0  0  0  0  0
  -28.3614   17.9222  -26.8726 C   0  0  0  0  0  0  0  0  0  0  0  0
  -27.7970   16.6540  -26.8087 C   0  0  0  0  0  0  0  0  0  0  0  0
  -28.7212   15.3348  -26.1048 Cl  0  0  0  0  0  0  0  0  0  0  0  0
  -26.5111   16.4339  -27.2985 C   0  0  0  0  0  0  0  0  0  0  0  0
  -25.8041   14.8284  -27.2143 Cl  0  0  0  0  0  0  0  0  0  0  0  0
  -25.8137   17.4886  -27.8437 C   0  0  0  0  0  0  0  0  0  0  0  0
  -24.6647   20.8398  -30.5039 N   0  0  0  0  0  0  0  0  0  0  0  0
  -23.7956   20.6950  -31.5872 N   0  0  0  0  0  0  0  0  0  0  0  0
  -23.7644   19.6697  -32.4464 C   0  0  0  0  0  0  0  0  0  0  0  0
  -22.7823   19.9451  -33.3176 N   0  0  0  0  0  0  0  0  0  0  0  0
  -22.2149   21.1182  -33.0056 N   0  0  0  0  0  0  0  0  0  0  0  0
  -22.8416   21.6021  -31.9192 C   0  0  0  0  0  0  0  0  0  0  0  0
  1  2  2  0
  2  3  1  0
  3  4  1  0
  4  5  2  0
  5  6  1  0
  6  7  2  0
  7  8  1  0
  7  9  1  0
  9 10  1  0
  9 11  2  0
  2 12  1  0
 12 13  1  0
 13 14  1  0
 14 15  2  0
 15 16  1  0
 16 17  2  0
 11  4  1  0
 17 13  1  0
M  END
$$$$
