
     RDKit          3D

 20 21  0  0  0  0  0  0  0  0999 V2000
  -28.1955   23.2518  -26.9581 N   0  0  0  0  0  0  0  0  0  0  0  0
  -28.4833   22.0322  -27.6477 C   0  0  0  0  0  0  0  0  0  0  0  0
  -29.5367   21.9848  -28.3329 O   0  0  0  0  0  0  0  0  0  0  0  0
  -27.5942   20.8526  -27.5733 C   0  0  0  0  0  0  0  0  0  0  0  0
  -28.1569   19.7693  -28.3191 N   0  0  0  0  0  0  0  0  0  0  0  0
  -29.2146   19.1011  -27.6425 C   0  0  0  0  0  0  0  0  0  0  0  0
  -28.7917   17.8973  -26.8312 C   0  0  0  0  0  0  0  0  0  0  0  0
  -29.0651   16.6348  -27.6519 C   0  0  0  0  0  0  0  0  0  0  0  0
  -30.5352   16.3530  -27.5657 C   0  0  0  0  0  0  0  0  0  0  0  0
  -31.2293   15.9357  -28.6794 C   0  0  0  0  0  0  0  0  0  0  0  0
  -32.5888   15.6306  -28.6555 C   0  0  0  0  0  0  0  0  0  0  0  0
  -33.2645   15.7536  -27.4595 C   0  0  0  0  0  0  0  0  0  0  0  0
  -32.5651   16.1747  -26.3361 C   0  0  0  0  0  0  0  0  0  0  0  0
  -31.2229   16.4744  -26.3695 C   0  0  0  0  0  0  0  0  0  0  0  0
  -28.3159   15.4618  -27.1211 C   0  0  0  0  0  0  0  0  0  0  0  0
  -27.4513   14.7538  -27.9224 C   0  0  0  0  0  0  0  0  0  0  0  0
  -26.7313   13.6680  -27.4400 C   0  0  0  0  0  0  0  0  0  0  0  0
  -26.8812   13.2795  -26.1155 C   0  0  0  0  0  0  0  0  0  0  0  0
  -27.7606   14.0109  -25.3284 C   0  0  0  0  0  0  0  0  0  0  0  0
  -28.4727   15.0887  -25.8132 C   0  0  0  0  0  0  0  0  0  0  0  0
  1  2  1  0
  2  3  2  0
  2  4  1  0
  4  5  1  0
  5  6  1  0
  6  7  1  0
  7  8  1  0
  8  9  1  0
  9 10  2  0
 10 11  1  0
 11 12  2  0
 12 13  1  0
 13 14  2  0
  8 15  1  0
 15 16  2  0
 16 17  1  0
 17 18  2  0
 18 19  1  0
 19 20  2  0
 14  9  1  0
 20 15  1  0
M  END
$$$$
