
     RDKit          3D

 23 25  0  0  0  0  0  0  0  0999 V2000
  -26.2210   14.2337  -28.8548 N   0  0  0  0  0  0  0  0  0  0  0  0
  -26.4619   15.5003  -27.7402 S   0  0  0  0  0  6  0  0  0  0  0  0
  -25.2789   16.4273  -27.5376 O   0  0  0  0  0  0  0  0  0  0  0  0
  -26.3097   14.7193  -26.4001 O   0  0  0  0  0  0  0  0  0  0  0  0
  -27.9974   16.2328  -27.6585 C   0  0  0  0  0  0  0  0  0  0  0  0
  -29.1439   15.4230  -27.4415 C   0  0  0  0  0  0  0  0  0  0  0  0
  -30.4079   15.8929  -27.3426 C   0  0  0  0  0  0  0  0  0  0  0  0
  -30.6232   17.2413  -27.4544 C   0  0  0  0  0  0  0  0  0  0  0  0
  -29.5728   18.0812  -27.6625 C   0  0  0  0  0  0  0  0  0  0  0  0
  -28.2361   17.5921  -27.7727 C   0  0  0  0  0  0  0  0  0  0  0  0
  -27.1909   18.4536  -27.8955 C   0  0  0  0  0  0  0  0  0  0  0  0
  -25.8542   18.1976  -28.0278 N   0  0  0  0  0  4  0  0  0  0  0  0
  -24.9802   18.4263  -27.2637 O   0  0  0  0  0  0  0  0  0  0  0  0
  -25.4489   17.3186  -29.0451 O   0  0  0  0  0  1  0  0  0  0  0  0
  -27.5087   19.8508  -27.8921 C   0  0  0  0  0  0  0  0  0  0  0  0
  -28.7518   20.3481  -27.7862 C   0  0  0  0  0  0  0  0  0  0  0  0
  -28.9647   21.6700  -27.7976 N   0  0  0  0  0  0  0  0  0  0  0  0
  -30.2184   22.1454  -27.6961 C   0  0  0  0  0  0  0  0  0  0  0  0
  -30.4489   23.3890  -27.7042 O   0  0  0  0  0  0  0  0  0  0  0  0
  -31.2535   21.2460  -27.5826 C   0  0  0  0  0  0  0  0  0  0  0  0
  -32.4286   21.6889  -27.4866 O   0  0  0  0  0  0  0  0  0  0  0  0
  -31.0615   19.8891  -27.5693 N   0  0  0  0  0  0  0  0  0  0  0  0
  -29.7975   19.4610  -27.6726 C   0  0  0  0  0  0  0  0  0  0  0  0
  1  2  1  0
  2  3  2  0
  2  4  2  0
  2  5  1  0
  5  6  2  0
  6  7  1  0
  7  8  2  0
  8  9  1  0
  9 10  2  0
 10 11  1  0
 11 12  1  0
 12 13  2  0
 12 14  1  0
 11 15  2  0
 15 16  1  0
 16 17  1  0
 17 18  1  0
 18 19  2  0
 18 20  1  0
 20 21  2  0
 20 22  1  0
 22 23  1  0
 10  5  1  0
 23 16  2  0
 23  9  1  0
M  CHG  2  12   1  14  -1
M  END
$$$$
