
     RDKit          3D

 31 33  0  0  0  0  0  0  0  0999 V2000
  -18.9161   41.3859  -21.8816 C   0  0  0  0  0  0  0  0  0  0  0  0
  -18.6015   39.9627  -22.2336 C   0  0  1  0  0  0  0  0  0  0  0  0
  -18.7290   39.8087  -23.6155 O   0  0  0  0  0  0  0  0  0  0  0  0
  -19.5583   38.8273  -24.1803 C   0  0  0  0  0  0  0  0  0  0  0  0
  -19.9753   38.9751  -25.5041 C   0  0  0  0  0  0  0  0  0  0  0  0
  -20.7878   38.0174  -26.0635 C   0  0  0  0  0  0  0  0  0  0  0  0
  -21.2221   38.1499  -27.4076 N   0  0  0  0  0  0  0  0  0  0  0  0
  -21.2063   39.6528  -28.2459 S   0  0  0  0  0  6  0  0  0  0  0  0
  -19.8720   40.2869  -28.1341 O   0  0  0  0  0  0  0  0  0  0  0  0
  -21.4898   39.4188  -29.7116 O   0  0  0  0  0  0  0  0  0  0  0  0
  -22.4448   40.6385  -27.5606 N   0  0  0  0  0  0  0  0  0  0  0  0
  -21.9554   41.8260  -26.8873 C   0  0  0  0  0  0  0  0  0  0  0  0
  -23.2527   42.5097  -27.3395 C   0  0  0  0  0  0  0  0  0  0  0  0
  -23.0997   41.5301  -28.5100 C   0  0  0  0  0  0  0  0  0  0  0  0
  -21.1511   36.9709  -25.3111 N   0  0  0  0  0  0  0  0  0  0  0  0
  -20.7330   36.8435  -24.0175 C   0  0  0  0  0  0  0  0  0  0  0  0
  -21.2597   35.4196  -23.0773 S   0  0  0  0  0  0  0  0  0  0  0  0
  -20.4516   35.4652  -21.4684 C   0  0  0  0  0  0  0  0  0  0  0  0
  -19.4343   34.3924  -21.3946 C   0  0  0  0  0  0  0  0  0  0  0  0
  -18.5560   34.1937  -22.4188 C   0  0  0  0  0  0  0  0  0  0  0  0
  -17.6176   33.1994  -22.3441 C   0  0  0  0  0  0  0  0  0  0  0  0
  -17.5357   32.3778  -21.2387 C   0  0  0  0  0  0  0  0  0  0  0  0
  -18.4472   32.6062  -20.2089 C   0  0  0  0  0  0  0  0  0  0  0  0
  -18.3958   31.8217  -19.1124 F   0  0  0  0  0  0  0  0  0  0  0  0
  -19.3828   33.6011  -20.2887 C   0  0  0  0  0  0  0  0  0  0  0  0
  -20.2468   33.7670  -19.2365 F   0  0  0  0  0  0  0  0  0  0  0  0
  -19.9401   37.7647  -23.4498 N   0  0  0  0  0  0  0  0  0  0  0  0
  -17.2265   39.5466  -21.7370 C   0  0  1  0  0  0  0  0  0  0  0  0
  -17.0061   38.2220  -22.0747 O   0  0  0  0  0  0  0  0  0  0  0  0
  -16.1555   40.4226  -22.3762 C   0  0  0  0  0  0  0  0  0  0  0  0
  -14.9662   40.2618  -21.6769 O   0  0  0  0  0  0  0  0  0  0  0  0
  2  1  1  6
  2  3  1  0
  3  4  1  0
  4  5  2  0
  5  6  1  0
  6  7  1  0
  7  8  1  0
  8  9  2  0
  8 10  2  0
  8 11  1  0
 11 12  1  0
 12 13  1  0
 13 14  1  0
  6 15  2  0
 15 16  1  0
 16 17  1  0
 17 18  1  0
 18 19  1  0
 19 20  2  0
 20 21  1  0
 21 22  2  0
 22 23  1  0
 23 24  1  0
 23 25  2  0
 25 26  1  0
 16 27  2  0
  2 28  1  0
 28 29  1  6
 28 30  1  0
 30 31  1  0
 27  4  1  0
 14 11  1  0
 25 19  1  0
M  END
$$$$
