
     RDKit          3D

 30 33  0  0  0  0  0  0  0  0999 V2000
  -20.6605   17.4605  -40.0536 C   0  0  0  0  0  0  0  0  0  0  0  0
  -21.5879   18.2401  -39.1553 C   0  0  0  0  0  0  0  0  0  0  0  0
  -21.1132   18.1852  -37.7140 C   0  0  0  0  0  0  0  0  0  0  0  0
  -21.9772   19.0443  -36.8090 C   0  0  0  0  0  0  0  0  0  0  0  0
  -22.4469   18.2366  -35.6554 C   0  0  0  0  0  0  0  0  0  0  0  0
  -23.4781   17.3451  -35.7236 N   0  0  0  0  0  0  0  0  0  0  0  0
  -23.6782   16.7779  -34.5375 C   0  0  0  0  0  0  0  0  0  0  0  0
  -24.8772   15.5831  -34.1388 Cl  0  0  0  0  0  0  0  0  0  0  0  0
  -22.7575   17.3057  -33.6588 C   0  0  0  0  0  0  0  0  0  0  0  0
  -22.6701   16.9373  -32.2180 C   0  0  0  0  0  0  0  0  0  0  0  0
  -23.9522   17.2327  -31.6855 O   0  0  0  0  0  0  0  0  0  0  0  0
  -22.0247   18.1897  -34.3795 N   0  0  0  0  0  0  0  0  0  0  0  0
  -20.9313   18.9316  -33.8293 C   0  0  0  0  0  0  0  0  0  0  0  0
  -19.6762   18.1790  -33.6425 C   0  0  0  0  0  0  0  0  0  0  0  0
  -18.6702   18.7225  -32.8584 C   0  0  0  0  0  0  0  0  0  0  0  0
  -17.4756   18.0561  -32.6739 C   0  0  0  0  0  0  0  0  0  0  0  0
  -17.2164   16.8363  -33.2456 C   0  0  0  0  0  0  0  0  0  0  0  0
  -15.9654   16.1366  -33.0792 C   0  0  0  0  0  0  0  0  0  0  0  0
  -15.1406   15.9757  -34.2009 C   0  0  0  0  0  0  0  0  0  0  0  0
  -13.9415   15.3103  -34.1312 C   0  0  0  0  0  0  0  0  0  0  0  0
  -13.5776   14.8018  -32.9011 C   0  0  0  0  0  0  0  0  0  0  0  0
  -14.3604   14.9407  -31.7802 C   0  0  0  0  0  0  0  0  0  0  0  0
  -15.5880   15.6229  -31.8549 C   0  0  0  0  0  0  0  0  0  0  0  0
  -16.3952   15.7571  -30.6508 C   0  0  0  0  0  0  0  0  0  0  0  0
  -16.1099   16.4076  -29.5262 N   0  0  0  0  0  0  0  0  0  0  0  0
  -17.1243   16.2851  -28.6779 N   0  0  0  0  0  0  0  0  0  0  0  0
  -18.0781   15.5467  -29.2584 N   0  0  0  0  0  0  0  0  0  0  0  0
  -17.6135   15.2318  -30.4680 N   0  0  0  0  0  0  0  0  0  0  0  0
  -18.2174   16.3020  -34.0215 C   0  0  0  0  0  0  0  0  0  0  0  0
  -19.4375   16.9584  -34.2236 C   0  0  0  0  0  0  0  0  0  0  0  0
  1  2  1  0
  2  3  1  0
  3  4  1  0
  4  5  1  0
  5  6  2  0
  6  7  1  0
  7  8  1  0
  7  9  2  0
  9 10  1  0
 10 11  1  0
  9 12  1  0
 12 13  1  0
 13 14  1  0
 14 15  2  0
 15 16  1  0
 16 17  2  0
 17 18  1  0
 18 19  2  0
 19 20  1  0
 20 21  2  0
 21 22  1  0
 22 23  2  0
 23 24  1  0
 24 25  1  0
 25 26  2  0
 26 27  1  0
 27 28  1  0
 17 29  1  0
 29 30  2  0
 12  5  1  0
 30 14  1  0
 23 18  1  0
 28 24  2  0
M  END
$$$$
