
     RDKit          3D

 18 20  0  0  0  0  0  0  0  0999 V2000
  -19.0629   32.9961  -21.8524 C   0  0  0  0  0  0  0  0  0  0  0  0
  -19.0704   34.3451  -22.4374 N   0  0  0  0  0  0  0  0  0  0  0  0
  -17.9188   35.0213  -23.0034 C   0  0  0  0  0  0  0  0  0  0  0  0
  -16.7580   34.6102  -22.9007 O   0  0  0  0  0  0  0  0  0  0  0  0
  -18.4133   36.2088  -23.6728 C   0  0  0  0  0  0  0  0  0  0  0  0
  -17.6259   37.4369  -23.4488 C   0  0  0  0  0  0  0  0  0  0  0  0
  -17.9774   38.3155  -22.3397 C   0  0  0  0  0  0  0  0  0  0  0  0
  -18.7832   37.9611  -21.2493 C   0  0  0  0  0  0  0  0  0  0  0  0
  -18.9301   39.0356  -20.4543 N   0  0  0  0  0  0  0  0  0  0  0  0
  -18.2577   40.0829  -20.9705 C   0  0  0  0  0  0  0  0  0  0  0  0
  -18.0787   41.3760  -20.5306 C   0  0  0  0  0  0  0  0  0  0  0  0
  -17.2968   42.2824  -21.2398 C   0  0  0  0  0  0  0  0  0  0  0  0
  -16.7020   41.8719  -22.3920 C   0  0  0  0  0  0  0  0  0  0  0  0
  -16.8806   40.5830  -22.8333 C   0  0  0  0  0  0  0  0  0  0  0  0
  -17.6578   39.6373  -22.1535 C   0  0  0  0  0  0  0  0  0  0  0  0
  -19.7966   36.3944  -23.1644 N   0  0  0  0  0  0  0  0  0  0  0  0
  -20.1997   35.1877  -22.5417 C   0  0  0  0  0  0  0  0  0  0  0  0
  -21.7295   34.8068  -22.0241 S   0  0  0  0  0  0  0  0  0  0  0  0
  1  2  1  0
  2  3  1  0
  3  4  2  0
  3  5  1  0
  5  6  1  0
  6  7  1  0
  7  8  2  0
  8  9  1  0
  9 10  1  0
 10 11  2  0
 11 12  1  0
 12 13  2  0
 13 14  1  0
 14 15  2  0
  5 16  1  0
 16 17  1  0
 17 18  2  0
 17  2  1  0
 15  7  1  0
 15 10  1  0
M  END
$$$$
