
     RDKit          3D

 16 16  0  0  0  0  0  0  0  0999 V2000
  -28.6684   20.1061  -26.8218 N   0  0  0  0  0  0  0  0  0  0  0  0
  -29.0983   20.6637  -28.0491 C   0  0  0  0  0  0  0  0  0  0  0  0
  -28.4143   21.7026  -28.6477 C   0  0  0  0  0  0  0  0  0  0  0  0
  -28.8258   22.2528  -29.8442 C   0  0  0  0  0  0  0  0  0  0  0  0
  -27.9475   23.5786  -30.6019 Cl  0  0  0  0  0  0  0  0  0  0  0  0
  -29.9469   21.7818  -30.4948 C   0  0  0  0  0  0  0  0  0  0  0  0
  -30.4507   22.4998  -32.0186 S   0  0  0  0  0  6  0  0  0  0  0  0
  -29.0638   23.1780  -32.7614 N   0  0  0  0  0  0  0  0  0  0  0  0
  -31.0439   21.4602  -32.9059 O   0  0  0  0  0  0  0  0  0  0  0  0
  -31.4677   23.5595  -31.7053 O   0  0  0  0  0  0  0  0  0  0  0  0
  -30.6412   20.7459  -29.9120 C   0  0  0  0  0  0  0  0  0  0  0  0
  -30.2244   20.1991  -28.7140 C   0  0  0  0  0  0  0  0  0  0  0  0
  -31.0946   18.8828  -27.9597 S   0  0  0  0  0  6  0  0  0  0  0  0
  -31.9622   19.4788  -26.6282 N   0  0  0  0  0  0  0  0  0  0  0  0
  -30.1075   17.8220  -27.6057 O   0  0  0  0  0  0  0  0  0  0  0  0
  -32.0560   18.3112  -28.9802 O   0  0  0  0  0  0  0  0  0  0  0  0
  1  2  1  0
  2  3  2  0
  3  4  1  0
  4  5  1  0
  4  6  2  0
  6  7  1  0
  7  8  1  0
  7  9  2  0
  7 10  2  0
  6 11  1  0
 11 12  2  0
 12 13  1  0
 13 14  1  0
 13 15  2  0
 13 16  2  0
 12  2  1  0
M  END
$$$$
