
     RDKit          3D

 35 39  0  0  0  0  0  0  0  0999 V2000
  -28.6301   24.6058  -33.7178 C   0  0  0  0  0  0  0  0  0  0  0  0
  -28.4450   24.4123  -32.2515 C   0  0  0  0  0  0  0  0  0  0  0  0
  -29.6172   23.8624  -31.6007 N   0  0  0  0  0  0  0  0  0  0  0  0
  -29.5314   22.6169  -30.8792 C   0  0  0  0  0  0  0  0  0  0  0  0
  -28.4480   22.3964  -30.3341 O   0  0  0  0  0  0  0  0  0  0  0  0
  -30.6013   21.7207  -30.8022 N   0  0  0  0  0  0  0  0  0  0  0  0
  -30.7322   20.6939  -29.8447 C   0  0  0  0  0  0  0  0  0  0  0  0
  -31.8915   19.9033  -29.8585 C   0  0  0  0  0  0  0  0  0  0  0  0
  -32.1001   18.8770  -28.9568 C   0  0  0  0  0  0  0  0  0  0  0  0
  -31.1714   18.5948  -28.0096 C   0  0  0  0  0  0  0  0  0  0  0  0
  -31.3792   17.5054  -27.0429 C   0  0  0  0  0  0  0  0  0  0  0  0
  -30.3492   17.0760  -26.2874 N   0  0  0  0  0  0  0  0  0  0  0  0
  -30.4680   16.0805  -25.3794 C   0  0  0  0  0  0  0  0  0  0  0  0
  -31.6795   15.4769  -25.2125 C   0  0  0  0  0  0  0  0  0  0  0  0
  -32.7421   15.9004  -25.9733 C   0  0  0  0  0  0  0  0  0  0  0  0
  -34.0358   15.3290  -25.8635 N   0  0  0  0  0  0  0  0  0  0  0  0
  -34.9108   15.0690  -26.9870 C   0  0  0  0  0  0  0  0  0  0  0  0
  -35.4650   13.6588  -26.7638 C   0  0  0  0  0  0  0  0  0  0  0  0
  -36.1247   13.5230  -25.5706 O   0  0  0  0  0  0  0  0  0  0  0  0
  -35.9595   14.5427  -24.6680 C   0  0  0  0  0  0  0  0  0  0  0  0
  -34.5173   14.9804  -24.5429 C   0  0  2  0  0  0  0  0  0  0  0  0
  -34.3983   16.1240  -23.5832 C   0  0  0  0  0  0  0  0  0  0  0  0
  -32.5609   16.9123  -26.8759 N   0  0  0  0  0  0  0  0  0  0  0  0
  -31.8336   14.3950  -24.2346 C   0  0  0  0  0  0  0  0  0  0  0  0
  -30.5882   13.5684  -24.0374 C   0  0  0  0  0  0  0  0  0  0  0  0
  -29.3872   14.3696  -24.0292 N   0  0  0  0  0  0  0  0  0  0  0  0
  -28.2369   13.8163  -23.4124 C   0  0  0  0  0  0  0  0  0  0  0  0
  -27.0066   14.3500  -23.5773 N   0  0  0  0  0  0  0  0  0  0  0  0
  -25.9848   13.7483  -22.9483 C   0  0  0  0  0  0  0  0  0  0  0  0
  -26.1277   12.6282  -22.1537 C   0  0  0  0  0  0  0  0  0  0  0  0
  -27.4028   12.0992  -22.0004 C   0  0  0  0  0  0  0  0  0  0  0  0
  -28.3872   12.7261  -22.6409 N   0  0  0  0  0  0  0  0  0  0  0  0
  -29.2966   15.6822  -24.6057 C   0  0  0  0  0  0  0  0  0  0  0  0
  -30.0344   19.3363  -27.9615 C   0  0  0  0  0  0  0  0  0  0  0  0
  -29.8305   20.3687  -28.8726 C   0  0  0  0  0  0  0  0  0  0  0  0
  1  2  1  0
  2  3  1  0
  3  4  1  0
  4  5  2  0
  4  6  1  0
  6  7  1  0
  7  8  2  0
  8  9  1  0
  9 10  2  0
 10 11  1  0
 11 12  2  0
 12 13  1  0
 13 14  2  0
 14 15  1  0
 15 16  1  0
 16 17  1  0
 17 18  1  0
 18 19  1  0
 19 20  1  0
 20 21  1  0
 21 22  1  1
 15 23  2  0
 14 24  1  0
 24 25  1  0
 25 26  1  0
 26 27  1  0
 27 28  2  0
 28 29  1  0
 29 30  2  0
 30 31  1  0
 31 32  2  0
 26 33  1  0
 10 34  1  0
 34 35  2  0
 35  7  1  0
 23 11  1  0
 32 27  1  0
 33 13  1  0
 21 16  1  0
M  END
$$$$
