
     RDKit          3D

 14 16  0  0  0  0  0  0  0  0999 V2000
  -31.4669   18.8061  -28.4162 O   0  0  0  0  0  0  0  0  0  0  0  0
  -30.4210   18.8483  -27.7411 C   0  0  0  0  0  0  0  0  0  0  0  0
  -29.5791   19.8462  -27.6540 O   0  0  0  0  0  0  0  0  0  0  0  0
  -28.5945   19.5651  -26.8667 N   0  0  0  0  0  0  0  0  0  0  0  0
  -28.7759   18.3107  -26.3933 C   0  0  0  0  0  0  0  0  0  0  0  0
  -28.0156   17.5569  -25.5312 C   0  0  0  0  0  0  0  0  0  0  0  0
  -28.4464   16.3256  -25.2345 N   0  0  0  0  0  0  0  0  0  0  0  0
  -29.6056   15.8722  -25.7902 C   0  0  0  0  0  0  0  0  0  0  0  0
  -29.9977   14.5792  -25.4385 C   0  0  0  0  0  0  0  0  0  0  0  0
  -31.1668   14.0984  -25.9878 C   0  0  0  0  0  0  0  0  0  0  0  0
  -31.9328   14.8414  -26.8486 C   0  0  0  0  0  0  0  0  0  0  0  0
  -31.5400   16.1316  -27.1984 C   0  0  0  0  0  0  0  0  0  0  0  0
  -30.3721   16.6227  -26.6548 C   0  0  0  0  0  0  0  0  0  0  0  0
  -29.9374   17.8772  -26.9599 N   0  0  0  0  0  0  0  0  0  0  0  0
  1  2  2  0
  2  3  1  0
  3  4  1  0
  4  5  2  0
  5  6  1  0
  6  7  2  0
  7  8  1  0
  8  9  2  0
  9 10  1  0
 10 11  2  0
 11 12  1  0
 12 13  2  0
 13 14  1  0
 14  2  1  0
 14  5  1  0
 13  8  1  0
M  END
$$$$
