
     RDKit          3D

 35 39  0  0  0  0  0  0  0  0999 V2000
  -21.4524   21.3636  -38.1684 C   0  0  0  0  0  0  0  0  0  0  0  0
  -21.3271   20.7900  -39.5316 C   0  0  0  0  0  0  0  0  0  0  0  0
  -21.1945   21.5567  -40.5190 O   0  0  0  0  0  0  0  0  0  0  0  0
  -21.3496   19.4250  -39.7748 O   0  0  0  0  0  0  0  0  0  0  0  0
  -21.3275   18.5282  -38.6709 C   0  0  0  0  0  0  0  0  0  0  0  0
  -19.9387   18.3953  -38.1953 C   0  0  0  0  0  0  0  0  0  0  0  0
  -19.0820   19.2135  -38.5873 O   0  0  0  0  0  0  0  0  0  0  0  0
  -19.4280   17.3698  -37.2643 C   0  0  1  0  0  0  0  0  0  0  0  0
  -20.4437   16.4342  -36.9526 O   0  0  0  0  0  0  0  0  0  0  0  0
  -20.0910   15.2501  -37.5453 C   0  0  0  0  0  0  0  0  0  0  0  0
  -20.4619   14.1011  -36.6054 C   0  0  0  0  0  0  0  0  0  0  0  0
  -20.8127   15.1055  -38.8541 C   0  0  0  0  0  0  0  0  0  0  0  0
  -18.7070   15.2317  -37.7004 O   0  0  0  0  0  0  0  0  0  0  0  0
  -18.3282   16.5578  -37.9007 C   0  0  2  0  0  0  0  0  0  0  0  0
  -17.0708   16.8989  -37.0660 C   0  0  0  0  0  0  0  0  0  0  0  0
  -17.6780   17.0110  -35.7451 C   0  0  1  0  0  0  0  0  0  0  0  0
  -16.9097   17.6719  -34.6365 C   0  0  2  0  0  0  0  0  0  0  0  0
  -15.4889   17.2380  -34.5765 C   0  0  0  0  0  0  0  0  0  0  0  0
  -14.8423   17.9278  -33.3592 C   0  0  2  0  0  0  0  0  0  0  0  0
  -13.5427   17.6103  -33.1917 F   0  0  0  0  0  0  0  0  0  0  0  0
  -15.6580   17.4309  -32.1602 C   0  0  0  0  0  0  0  0  0  0  0  0
  -15.0628   16.7141  -31.2732 C   0  0  0  0  0  0  0  0  0  0  0  0
  -15.7928   16.2045  -30.1200 C   0  0  0  0  0  0  0  0  0  0  0  0
  -15.2498   15.5024  -29.2282 O   0  0  0  0  0  0  0  0  0  0  0  0
  -17.2010   16.5227  -30.0014 C   0  0  0  0  0  0  0  0  0  0  0  0
  -17.7464   17.2684  -30.9471 C   0  0  0  0  0  0  0  0  0  0  0  0
  -17.0699   17.8252  -32.1183 C   0  0  1  0  0  0  0  0  0  0  0  0
  -17.0878   19.3526  -32.0643 C   0  0  0  0  0  0  0  0  0  0  0  0
  -17.6864   17.2951  -33.3931 C   0  0  2  0  0  0  0  0  0  0  0  0
  -17.5392   15.8979  -33.2953 F   0  0  0  0  0  0  0  0  0  0  0  0
  -19.1474   17.5485  -33.4770 C   0  0  1  0  0  0  0  0  0  0  0  0
  -19.4901   18.7817  -32.8619 O   0  0  0  0  0  0  0  0  0  0  0  0
  -19.8074   17.5227  -34.7933 C   0  0  0  0  0  0  0  0  0  0  0  0
  -18.8937   17.8694  -35.9608 C   0  0  2  0  0  0  0  0  0  0  0  0
  -18.6579   19.3393  -35.9045 C   0  0  0  0  0  0  0  0  0  0  0  0
  1  2  1  0
  2  3  2  0
  2  4  1  0
  4  5  1  0
  5  6  1  0
  6  7  2  0
  8  6  1  6
  8  9  1  0
  9 10  1  0
 10 11  1  0
 10 12  1  0
 10 13  1  0
 13 14  1  0
 14 15  1  1
 16 15  1  6
 16 17  1  0
 17 18  1  1
 18 19  1  0
 19 20  1  1
 19 21  1  0
 21 22  2  0
 22 23  1  0
 23 24  2  0
 23 25  1  0
 25 26  2  0
 26 27  1  0
 27 28  1  6
 27 29  1  0
 29 30  1  1
 29 31  1  0
 31 32  1  6
 31 33  1  0
 33 34  1  0
 34 35  1  6
 14  8  1  0
 34 16  1  0
 34  8  1  0
 29 17  1  0
 27 21  1  0
M  END
$$$$
