
     RDKit          3D

 16 17  0  0  0  0  0  0  0  0999 V2000
  -16.0970   34.8196  -21.4197 O   0  0  0  0  0  0  0  0  0  0  0  0
  -17.1947   35.3273  -21.7653 C   0  0  0  0  0  0  0  0  0  0  0  0
  -18.2192   34.4147  -21.8462 C   0  0  0  0  0  0  0  0  0  0  0  0
  -19.5789   34.7158  -21.8188 C   0  0  0  0  0  0  0  0  0  0  0  0
  -20.1829   35.9288  -22.0965 C   0  0  0  0  0  0  0  0  0  0  0  0
  -19.6306   37.1407  -22.4937 C   0  0  0  0  0  0  0  0  0  0  0  0
  -20.5601   38.0468  -22.9633 C   0  0  0  0  0  0  0  0  0  0  0  0
  -20.1751   39.3132  -23.4031 C   0  0  0  0  0  0  0  0  0  0  0  0
  -21.1097   40.2273  -23.8764 O   0  0  0  0  0  0  0  0  0  0  0  0
  -18.8294   39.6523  -23.3611 C   0  0  0  0  0  0  0  0  0  0  0  0
  -18.4454   40.9150  -23.7996 O   0  0  0  0  0  0  0  0  0  0  0  0
  -17.9236   38.7188  -22.8840 C   0  0  0  0  0  0  0  0  0  0  0  0
  -16.5814   39.0584  -22.8427 O   0  0  0  0  0  0  0  0  0  0  0  0
  -18.2867   37.4767  -22.4508 C   0  0  0  0  0  0  0  0  0  0  0  0
  -17.2250   36.6876  -22.0094 C   0  0  0  0  0  0  0  0  0  0  0  0
  -16.0584   37.3809  -21.7945 O   0  0  0  0  0  0  0  0  0  0  0  0
  1  2  2  0
  2  3  1  0
  3  4  2  0
  4  5  1  0
  5  6  2  0
  6  7  1  0
  7  8  2  0
  8  9  1  0
  8 10  1  0
 10 11  1  0
 10 12  2  0
 12 13  1  0
 12 14  1  0
 14 15  2  0
 15 16  1  0
 15  2  1  0
 14  6  1  0
M  END
$$$$
