
     RDKit          3D

 34 37  0  0  0  0  0  0  0  0999 V2000
  -20.6063   40.0746  -27.8897 C   0  0  0  0  0  0  0  0  0  0  0  0
  -20.3778   39.4194  -26.5588 C   0  0  0  0  0  0  0  0  0  0  0  0
  -20.4809   40.4105  -25.4967 N   0  0  0  0  0  0  0  0  0  0  0  0
  -19.0077   38.7781  -26.5711 C   0  0  0  0  0  0  0  0  0  0  0  0
  -18.7163   38.0545  -25.2793 C   0  0  0  0  0  0  0  0  0  0  0  0
  -19.8319   37.3537  -24.7520 N   0  0  0  0  0  0  0  0  0  0  0  0
  -19.6314   36.2200  -23.9155 C   0  0  0  0  0  0  0  0  0  0  0  0
  -20.3145   35.0326  -24.2153 C   0  0  0  0  0  0  0  0  0  0  0  0
  -20.1219   33.9432  -23.4049 C   0  0  0  0  0  0  0  0  0  0  0  0
  -19.2809   33.9779  -22.3084 C   0  0  0  0  0  0  0  0  0  0  0  0
  -18.6583   35.1226  -22.0670 N   0  0  0  0  0  0  0  0  0  0  0  0
  -18.8037   36.2401  -22.8295 C   0  0  0  0  0  0  0  0  0  0  0  0
  -18.0698   37.3811  -22.4582 N   0  0  0  0  0  0  0  0  0  0  0  0
  -18.3143   38.0155  -21.2344 C   0  0  0  0  0  0  0  0  0  0  0  0
  -18.7886   37.3040  -20.3009 O   0  0  0  0  0  0  0  0  0  0  0  0
  -18.0570   39.4249  -20.9816 C   0  0  0  0  0  0  0  0  0  0  0  0
  -17.9540   40.3546  -21.9448 N   0  0  0  0  0  0  0  0  0  0  0  0
  -17.7148   41.6620  -21.7127 C   0  0  0  0  0  0  0  0  0  0  0  0
  -17.6870   42.5144  -22.8895 C   0  0  0  0  0  0  0  0  0  0  0  0
  -17.3045   41.9296  -24.0702 N   0  0  0  0  0  0  0  0  0  0  0  0
  -17.2746   42.5546  -25.2448 C   0  0  0  0  0  0  0  0  0  0  0  0
  -17.6539   43.8876  -25.2879 C   0  0  0  0  0  0  0  0  0  0  0  0
  -18.0436   44.5016  -24.1189 C   0  0  0  0  0  0  0  0  0  0  0  0
  -18.0672   43.8199  -22.8926 C   0  0  0  0  0  0  0  0  0  0  0  0
  -18.5369   44.5626  -21.7324 C   0  0  0  0  0  0  0  0  0  0  0  0
  -17.4562   44.8072  -20.8656 F   0  0  0  0  0  0  0  0  0  0  0  0
  -18.9658   45.8457  -22.1047 F   0  0  0  0  0  0  0  0  0  0  0  0
  -19.5322   44.0244  -20.9900 F   0  0  0  0  0  0  0  0  0  0  0  0
  -17.5633   42.0894  -20.4314 C   0  0  0  0  0  0  0  0  0  0  0  0
  -17.6618   41.1782  -19.4280 N   0  0  0  0  0  0  0  0  0  0  0  0
  -17.9020   39.8800  -19.6921 C   0  0  0  0  0  0  0  0  0  0  0  0
  -18.0089   38.9106  -18.6384 N   0  0  0  0  0  0  0  0  0  0  0  0
  -21.2185   37.7073  -25.0033 C   0  0  0  0  0  0  0  0  0  0  0  0
  -21.3969   38.3351  -26.3696 C   0  0  0  0  0  0  0  0  0  0  0  0
  1  2  1  0
  2  3  1  0
  2  4  1  0
  4  5  1  0
  5  6  1  0
  6  7  1  0
  7  8  2  0
  8  9  1  0
  9 10  2  0
 10 11  1  0
 11 12  2  0
 12 13  1  0
 13 14  1  0
 14 15  2  0
 14 16  1  0
 16 17  2  0
 17 18  1  0
 18 19  1  0
 19 20  2  0
 20 21  1  0
 21 22  2  0
 22 23  1  0
 23 24  2  0
 24 25  1  0
 25 26  1  0
 25 27  1  0
 25 28  1  0
 18 29  2  0
 29 30  1  0
 30 31  2  0
 31 32  1  0
  6 33  1  0
 33 34  1  0
 34  2  1  0
 12  7  1  0
 31 16  1  0
 24 19  1  0
M  END
$$$$
