
     RDKit          3D

 26 27  0  0  0  0  0  0  0  0999 V2000
  -18.6390   17.4246  -31.4207 O   0  0  0  0  0  0  0  0  0  0  0  0
  -17.5297   17.5353  -31.9849 C   0  0  0  0  0  0  0  0  0  0  0  0
  -16.5075   18.4519  -31.4315 C   0  0  0  0  0  0  0  0  0  0  0  0
  -16.3679   18.1807  -29.9583 C   0  0  0  0  0  0  0  0  0  0  0  0
  -15.5234   17.0151  -29.7942 N   0  0  0  0  0  0  0  0  0  0  0  0
  -15.9802   15.7679  -29.2902 C   0  0  0  0  0  0  0  0  0  0  0  0
  -17.1712   15.6363  -28.9415 O   0  0  0  0  0  0  0  0  0  0  0  0
  -15.0809   14.6189  -29.1673 C   0  0  0  0  0  0  0  0  0  0  0  0
  -14.9587   13.7723  -30.2342 C   0  0  0  0  0  0  0  0  0  0  0  0
  -14.1169   12.6761  -30.1516 C   0  0  0  0  0  0  0  0  0  0  0  0
  -13.4213   12.4746  -28.9778 C   0  0  0  0  0  0  0  0  0  0  0  0
  -13.5332   13.3177  -27.8945 C   0  0  0  0  0  0  0  0  0  0  0  0
  -14.3741   14.4068  -27.9866 C   0  0  0  0  0  0  0  0  0  0  0  0
  -14.6008   15.5451  -26.6858 Cl  0  0  0  0  0  0  0  0  0  0  0  0
  -17.2856   16.7702  -33.1494 N   0  0  0  0  0  0  0  0  0  0  0  0
  -18.3534   15.9838  -33.6603 C   0  0  0  0  0  0  0  0  0  0  0  0
  -18.1287   14.9224  -34.5290 C   0  0  0  0  0  0  0  0  0  0  0  0
  -19.1658   14.1596  -35.0244 C   0  0  0  0  0  0  0  0  0  0  0  0
  -20.4739   14.4216  -34.6752 C   0  0  0  0  0  0  0  0  0  0  0  0
  -21.7882   13.4713  -35.2901 Cl  0  0  0  0  0  0  0  0  0  0  0  0
  -20.7255   15.4692  -33.8147 C   0  0  0  0  0  0  0  0  0  0  0  0
  -22.1423   15.7623  -33.4293 C   0  0  0  0  0  0  0  0  0  0  0  0
  -22.8684   15.9737  -34.6033 F   0  0  0  0  0  0  0  0  0  0  0  0
  -22.2387   16.9259  -32.6977 F   0  0  0  0  0  0  0  0  0  0  0  0
  -22.6795   14.7015  -32.7451 F   0  0  0  0  0  0  0  0  0  0  0  0
  -19.6760   16.2211  -33.3292 C   0  0  0  0  0  0  0  0  0  0  0  0
  1  2  2  0
  2  3  1  0
  3  4  1  0
  4  5  1  0
  5  6  1  0
  6  7  2  0
  6  8  1  0
  8  9  2  0
  9 10  1  0
 10 11  2  0
 11 12  1  0
 12 13  2  0
 13 14  1  0
  2 15  1  0
 15 16  1  0
 16 17  2  0
 17 18  1  0
 18 19  2  0
 19 20  1  0
 19 21  1  0
 21 22  1  0
 22 23  1  0
 22 24  1  0
 22 25  1  0
 21 26  2  0
 13  8  1  0
 26 16  1  0
M  END
$$$$
