
     RDKit          3D

 30 31  0  0  0  0  0  0  0  0999 V2000
  -27.0535   14.9446  -23.5155 N   0  0  0  0  0  0  0  0  0  0  0  0
  -26.2628   14.8888  -24.3953 C   0  0  0  0  0  0  0  0  0  0  0  0
  -25.3250   14.8083  -25.4664 C   0  0  0  0  0  0  0  0  0  0  0  0
  -25.7174   15.1068  -26.7445 C   0  0  0  0  0  0  0  0  0  0  0  0
  -27.0337   15.4906  -27.0549 O   0  0  0  0  0  0  0  0  0  0  0  0
  -27.3573   16.8625  -26.9822 C   0  0  0  0  0  0  0  0  0  0  0  0
  -26.5526   17.6895  -26.2339 C   0  0  0  0  0  0  0  0  0  0  0  0
  -26.8674   19.0245  -26.1628 C   0  0  0  0  0  0  0  0  0  0  0  0
  -27.9704   19.5050  -26.8343 C   0  0  0  0  0  0  0  0  0  0  0  0
  -28.8004   18.7068  -27.5941 C   0  0  0  0  0  0  0  0  0  0  0  0
  -29.9069   19.2016  -28.2655 O   0  0  0  0  0  0  0  0  0  0  0  0
  -31.4203   19.0936  -27.4952 S   0  0  0  0  0  6  0  0  0  0  0  0
  -32.5099   19.2766  -28.4957 O   0  0  0  0  0  0  0  0  0  0  0  0
  -31.5139   20.2423  -26.5272 O   0  0  0  0  0  0  0  0  0  0  0  0
  -31.5557   17.6073  -26.5461 C   0  0  0  0  0  0  0  0  0  0  0  0
  -32.7541   17.5678  -25.6621 C   0  0  0  0  0  0  0  0  0  0  0  0
  -33.8082   16.5859  -26.0127 C   0  0  0  0  0  0  0  0  0  0  0  0
  -33.5098   15.1815  -25.5423 C   0  0  0  0  0  0  0  0  0  0  0  0
  -32.3710   14.6381  -26.0385 F   0  0  0  0  0  0  0  0  0  0  0  0
  -33.5061   15.1493  -24.1523 F   0  0  0  0  0  0  0  0  0  0  0  0
  -34.5680   14.3465  -25.9271 F   0  0  0  0  0  0  0  0  0  0  0  0
  -28.4523   17.3649  -27.6435 C   0  0  0  0  0  0  0  0  0  0  0  0
  -24.7443   15.0144  -27.7437 C   0  0  0  0  0  0  0  0  0  0  0  0
  -23.4529   14.6404  -27.4531 C   0  0  0  0  0  0  0  0  0  0  0  0
  -23.0736   14.3423  -26.1573 C   0  0  0  0  0  0  0  0  0  0  0  0
  -24.0213   14.4287  -25.1617 C   0  0  0  0  0  0  0  0  0  0  0  0
  -23.6672   14.1186  -23.7556 C   0  0  0  0  0  0  0  0  0  0  0  0
  -22.3703   14.5255  -23.4530 F   0  0  0  0  0  0  0  0  0  0  0  0
  -24.5201   14.7453  -22.8672 F   0  0  0  0  0  0  0  0  0  0  0  0
  -23.7007   12.7515  -23.5709 F   0  0  0  0  0  0  0  0  0  0  0  0
  1  2  3  0
  2  3  1  0
  3  4  2  0
  4  5  1  0
  5  6  1  0
  6  7  2  0
  7  8  1  0
  8  9  2  0
  9 10  1  0
 10 11  1  0
 11 12  1  0
 12 13  2  0
 12 14  2  0
 12 15  1  0
 15 16  1  0
 16 17  1  0
 17 18  1  0
 18 19  1  0
 18 20  1  0
 18 21  1  0
 10 22  2  0
  4 23  1  0
 23 24  2  0
 24 25  1  0
 25 26  2  0
 26 27  1  0
 27 28  1  0
 27 29  1  0
 27 30  1  0
 26  3  1  0
 22  6  1  0
M  END
$$$$
