
     RDKit          3D

 20 22  0  0  0  0  0  0  0  0999 V2000
  -18.6395   41.4301  -20.3525 N   0  0  0  0  0  0  0  0  0  0  0  0
  -17.8992   40.5358  -21.1648 C   0  0  0  0  0  0  0  0  0  0  0  0
  -16.6868   40.8347  -21.6635 N   0  0  0  0  0  0  0  0  0  0  0  0
  -16.0270   39.9297  -22.4383 C   0  0  0  0  0  0  0  0  0  0  0  0
  -16.5787   38.7401  -22.7083 N   0  0  0  0  0  0  0  0  0  0  0  0
  -17.7684   38.3970  -22.2424 C   0  0  0  0  0  0  0  0  0  0  0  0
  -18.4439   39.3034  -21.4586 C   0  0  0  0  0  0  0  0  0  0  0  0
  -19.6278   38.7014  -21.1184 C   0  0  0  0  0  0  0  0  0  0  0  0
  -21.1390   39.5761  -19.9090 I   0  0  0  0  0  0  0  0  0  0  0  0
  -19.6449   37.4548  -21.6975 C   0  0  0  0  0  0  0  0  0  0  0  0
  -18.4822   37.2757  -22.3950 N   0  0  0  0  0  0  0  0  0  0  0  0
  -18.1961   36.0820  -23.1099 C   0  0  2  0  0  0  0  0  0  0  0  0
  -19.4072   35.4358  -23.3723 O   0  0  0  0  0  0  0  0  0  0  0  0
  -19.4461   34.2716  -22.6711 C   0  0  2  0  0  0  0  0  0  0  0  0
  -20.6708   34.2914  -21.7587 C   0  0  0  0  0  0  0  0  0  0  0  0
  -20.6679   33.2220  -20.8832 O   0  0  0  0  0  0  0  0  0  0  0  0
  -18.1802   34.0796  -21.9110 C   0  0  1  0  0  0  0  0  0  0  0  0
  -17.5975   32.8312  -22.0814 O   0  0  0  0  0  0  0  0  0  0  0  0
  -17.2705   35.1302  -22.5114 C   0  0  1  0  0  0  0  0  0  0  0  0
  -16.5272   34.4826  -23.5287 O   0  0  0  0  0  0  0  0  0  0  0  0
  1  2  1  0
  2  3  2  0
  3  4  1  0
  4  5  2  0
  5  6  1  0
  6  7  2  0
  7  8  1  0
  8  9  1  0
  8 10  2  0
 10 11  1  0
 12 11  1  1
 12 13  1  0
 13 14  1  0
 14 15  1  1
 15 16  1  0
 14 17  1  0
 17 18  1  6
 17 19  1  0
 19 20  1  6
  7  2  1  0
 19 12  1  0
 11  6  1  0
M  END
$$$$
