
     RDKit          3D

 30 32  0  0  0  0  0  0  0  0999 V2000
  -18.4693   21.8496  -43.7336 C   0  0  0  0  0  0  0  0  0  0  0  0
  -17.2961   22.2133  -42.8634 C   0  0  0  0  0  0  0  0  0  0  0  0
  -17.2688   21.3413  -41.6216 C   0  0  0  0  0  0  0  0  0  0  0  0
  -15.8805   20.9376  -41.2629 C   0  0  0  0  0  0  0  0  0  0  0  0
  -18.0375   20.0664  -41.9921 C   0  0  0  0  0  0  0  0  0  0  0  0
  -17.9734   22.0639  -40.5222 C   0  0  0  0  0  0  0  0  0  0  0  0
  -17.4000   23.0160  -39.8900 O   0  0  0  0  0  0  0  0  0  0  0  0
  -19.2516   21.7682  -40.1205 O   0  0  0  0  0  0  0  0  0  0  0  0
  -20.4323   22.3373  -40.6396 C   0  0  1  0  0  0  0  0  0  0  0  0
  -21.0572   21.5242  -41.7510 C   0  0  0  0  0  0  0  0  0  0  0  0
  -21.8308   22.5262  -42.6128 C   0  0  1  0  0  0  0  0  0  0  0  0
  -22.7339   21.7183  -43.5136 C   0  0  0  0  0  0  0  0  0  0  0  0
  -22.7311   23.3348  -41.7118 C   0  0  0  0  0  0  0  0  0  0  0  0
  -22.5293   23.4644  -40.4397 C   0  0  0  0  0  0  0  0  0  0  0  0
  -23.4286   24.2591  -39.5804 C   0  0  0  0  0  0  0  0  0  0  0  0
  -23.5685   23.8725  -38.3449 C   0  0  0  0  0  0  0  0  0  0  0  0
  -22.8606   22.6652  -37.7722 C   0  0  2  0  0  0  0  0  0  0  0  0
  -22.0226   23.2194  -36.6461 C   0  0  0  0  0  0  0  0  0  0  0  0
  -22.1098   21.8664  -38.7564 C   0  0  2  0  0  0  0  0  0  0  0  0
  -21.2810   20.7651  -38.3131 C   0  0  0  0  0  0  0  0  0  0  0  0
  -21.7032   19.9121  -37.1933 C   0  0  0  0  0  0  0  0  0  0  0  0
  -20.7923   19.0102  -36.4684 C   0  0  2  0  0  0  0  0  0  0  0  0
  -20.5882   17.6776  -37.1588 C   0  0  0  0  0  0  0  0  0  0  0  0
  -21.0194   16.5291  -36.2673 C   0  0  1  0  0  0  0  0  0  0  0  0
  -20.6633   15.3148  -36.8109 O   0  0  0  0  0  0  0  0  0  0  0  0
  -20.2747   16.6307  -34.9225 C   0  0  0  0  0  0  0  0  0  0  0  0
  -20.8348   17.8943  -34.3135 C   0  0  0  0  0  0  0  0  0  0  0  0
  -20.7317   18.0571  -33.0600 O   0  0  0  0  0  0  0  0  0  0  0  0
  -21.4223   18.7817  -35.1752 O   0  0  0  0  0  0  0  0  0  0  0  0
  -21.4071   22.8495  -39.6799 C   0  0  1  0  0  0  0  0  0  0  0  0
  1  2  1  0
  2  3  1  0
  3  4  1  0
  3  5  1  0
  3  6  1  0
  6  7  2  0
  6  8  1  0
  9  8  1  1
  9 10  1  0
 10 11  1  0
 11 12  1  6
 11 13  1  0
 13 14  2  0
 14 15  1  0
 15 16  2  0
 16 17  1  0
 17 18  1  1
 17 19  1  0
 19 20  1  1
 20 21  1  0
 22 21  1  6
 22 23  1  0
 23 24  1  0
 24 25  1  6
 24 26  1  0
 26 27  1  0
 27 28  2  0
 27 29  1  0
 19 30  1  0
 30  9  1  0
 30 14  1  6
 29 22  1  0
M  END
$$$$
