
     RDKit          3D

 25 28  0  0  0  0  0  0  0  0999 V2000
  -18.8903   19.1824  -30.8757 O   0  0  0  0  0  0  0  0  0  0  0  0
  -17.7338   18.7002  -31.0268 C   0  0  0  0  0  0  0  0  0  0  0  0
  -16.6324   19.5592  -30.8045 N   0  0  0  0  0  0  0  0  0  0  0  0
  -16.7286   20.9204  -30.3900 C   0  0  0  0  0  0  0  0  0  0  0  0
  -17.5809   21.7947  -31.2299 C   0  0  0  0  0  0  0  0  0  0  0  0
  -18.6065   22.6337  -30.8039 C   0  0  0  0  0  0  0  0  0  0  0  0
  -19.1255   23.2587  -31.9175 C   0  0  0  0  0  0  0  0  0  0  0  0
  -18.3930   22.7747  -32.9900 C   0  0  0  0  0  0  0  0  0  0  0  0
  -17.5166   21.9343  -32.5375 O   0  0  0  0  0  0  0  0  0  0  0  0
  -17.5690   17.3052  -31.4133 C   0  0  0  0  0  0  0  0  0  0  0  0
  -16.4090   16.6196  -31.1270 C   0  0  0  0  0  0  0  0  0  0  0  0
  -16.1966   15.3183  -31.4675 C   0  0  0  0  0  0  0  0  0  0  0  0
  -14.9733   14.5821  -31.1817 C   0  0  0  0  0  0  0  0  0  0  0  0
  -14.0441   15.0204  -30.2883 C   0  0  0  0  0  0  0  0  0  0  0  0
  -12.8866   14.3014  -30.0530 C   0  0  0  0  0  0  0  0  0  0  0  0
  -12.6183   13.1028  -30.7149 C   0  0  0  0  0  0  0  0  0  0  0  0
  -13.5625   12.6573  -31.6230 C   0  0  0  0  0  0  0  0  0  0  0  0
  -14.7065   13.3968  -31.8347 C   0  0  0  0  0  0  0  0  0  0  0  0
  -17.2048   14.7018  -32.1204 N   0  0  0  0  0  0  0  0  0  0  0  0
  -18.3672   15.3184  -32.4294 C   0  0  0  0  0  0  0  0  0  0  0  0
  -19.3570   14.6325  -33.0978 C   0  0  0  0  0  0  0  0  0  0  0  0
  -20.5364   15.2450  -33.4172 C   0  0  0  0  0  0  0  0  0  0  0  0
  -20.7705   16.5620  -33.0815 C   0  0  0  0  0  0  0  0  0  0  0  0
  -19.7737   17.2274  -32.4170 C   0  0  0  0  0  0  0  0  0  0  0  0
  -18.5678   16.6524  -32.0733 C   0  0  0  0  0  0  0  0  0  0  0  0
  1  2  2  0
  2  3  1  0
  3  4  1  0
  4  5  1  0
  5  6  2  0
  6  7  1  0
  7  8  2  0
  8  9  1  0
  2 10  1  0
 10 11  2  0
 11 12  1  0
 12 13  1  0
 13 14  2  0
 14 15  1  0
 15 16  2  0
 16 17  1  0
 17 18  2  0
 12 19  2  0
 19 20  1  0
 20 21  2  0
 21 22  1  0
 22 23  2  0
 23 24  1  0
 24 25  2  0
  9  5  1  0
 25 10  1  0
 18 13  1  0
 25 20  1  0
M  END
$$$$
