
     RDKit          3D

 12 14  0  0  0  0  0  0  0  0999 V2000
  -16.2580   37.4084  -21.8694 O   0  0  0  0  0  0  0  0  0  0  0  0
  -17.4828   37.2271  -21.7423 C   0  0  0  0  0  0  0  0  0  0  0  0
  -17.9853   35.9870  -21.4007 O   0  0  0  0  0  0  0  0  0  0  0  0
  -18.3985   38.3515  -21.9599 C   0  0  0  0  0  0  0  0  0  0  0  0
  -19.7212   38.3502  -22.1019 N   0  0  0  0  0  0  0  0  0  0  0  0
  -20.2205   39.5465  -22.2825 N   0  0  0  0  0  0  0  0  0  0  0  0
  -19.1833   40.3999  -22.2615 C   0  0  0  0  0  0  0  0  0  0  0  0
  -18.0182   39.6935  -22.0614 C   0  0  0  0  0  0  0  0  0  0  0  0
  -16.8386   40.5735  -22.0281 C   0  0  0  0  0  0  0  0  0  0  0  0
  -17.4146   41.9508  -22.1051 C   0  0  1  0  0  0  0  0  0  0  0  0
  -17.9978   42.3294  -23.4295 C   0  0  0  0  0  0  0  0  0  0  0  0
  -18.8818   41.8338  -22.3810 C   0  0  1  0  0  0  0  0  0  0  0  0
  1  2  2  0
  2  3  1  0
  2  4  1  0
  4  5  2  0
  5  6  1  0
  6  7  1  0
  7  8  2  0
  8  9  1  0
 10  9  1  6
 10 11  1  0
 12 11  1  6
  8  4  1  0
 12 10  1  0
 12  7  1  0
M  END
$$$$
