
     RDKit          3D

 27 30  0  0  0  0  0  0  0  0999 V2000
  -21.2647   47.0269  -20.3783 C   0  0  0  0  0  0  0  0  0  0  0  0
  -20.5354   47.3778  -21.5726 N   0  0  0  0  0  4  0  0  0  0  0  0
  -21.0394   48.6378  -22.0493 C   0  0  0  0  0  0  0  0  0  0  0  0
  -19.1055   47.4726  -21.3543 C   0  0  1  0  0  0  0  0  0  0  0  0
  -18.5131   46.2486  -20.7621 C   0  0  0  0  0  0  0  0  0  0  0  0
  -19.2715   44.9926  -20.9577 C   0  0  2  0  0  0  0  0  0  0  0  0
  -18.3923   43.8829  -21.2033 O   0  0  0  0  0  0  0  0  0  0  0  0
  -18.3469   42.7878  -20.3564 C   0  0  0  0  0  0  0  0  0  0  0  0
  -19.1156   42.8195  -19.3647 O   0  0  0  0  0  0  0  0  0  0  0  0
  -17.4611   41.6255  -20.5669 C   0  0  0  0  0  0  0  0  0  0  0  0
  -17.6824   40.7214  -19.5298 O   0  0  0  0  0  0  0  0  0  0  0  0
  -16.0542   42.0131  -20.5205 C   0  0  0  0  0  0  0  0  0  0  0  0
  -14.9371   41.2924  -20.4782 C   0  0  0  0  0  0  0  0  0  0  0  0
  -13.7337   41.8763  -20.4398 C   0  0  0  0  0  0  0  0  0  0  0  0
  -13.6774   43.2531  -20.4449 C   0  0  0  0  0  0  0  0  0  0  0  0
  -15.4241   43.6997  -20.5075 S   0  0  0  0  0  0  0  0  0  0  0  0
  -17.8196   40.9111  -21.8230 C   0  0  0  0  0  0  0  0  0  0  0  0
  -17.4555   39.7225  -22.3183 C   0  0  0  0  0  0  0  0  0  0  0  0
  -17.9411   39.3259  -23.4933 C   0  0  0  0  0  0  0  0  0  0  0  0
  -18.7995   40.1409  -24.1660 C   0  0  0  0  0  0  0  0  0  0  0  0
  -18.8953   41.5653  -23.0061 S   0  0  0  0  0  0  0  0  0  0  0  0
  -20.2594   45.0089  -22.0797 C   0  0  0  0  0  0  0  0  0  0  0  0
  -20.5977   46.3613  -22.5970 C   0  0  2  0  0  0  0  0  0  0  0  0
  -19.4927   46.7889  -23.5563 C   0  0  1  0  0  0  0  0  0  0  0  0
  -19.3546   48.1367  -23.7581 O   0  0  0  0  0  0  0  0  0  0  0  0
  -18.5553   47.6553  -22.7375 C   0  0  1  0  0  0  0  0  0  0  0  0
  -18.5146   44.3175  -21.5119 Br  0  0  0  0  0 15  0  0  0  0  0  0
  1  2  1  0
  2  3  1  0
  2  4  1  0
  4  5  1  6
  5  6  1  0
  6  7  1  6
  7  8  1  0
  8  9  2  0
  8 10  1  0
 10 11  1  0
 10 12  1  0
 12 13  2  0
 13 14  1  0
 14 15  2  0
 15 16  1  0
 10 17  1  0
 17 18  2  0
 18 19  1  0
 19 20  2  0
 20 21  1  0
  6 22  1  0
 23 22  1  1
 23 24  1  0
 24 25  1  6
 26 25  1  6
 23  2  1  0
 26 24  1  0
 26  4  1  0
 16 12  1  0
 21 17  1  0
M  CHG  2   2   1  27  -1
M  END
$$$$
