
     RDKit          3D

 16 15  0  0  0  0  0  0  0  0999 V2000
  -21.9721   14.0821  -35.2967 C   0  0  0  0  0  0  0  0  0  0  0  0
  -20.6951   14.3666  -34.5109 C   0  0  0  0  0  0  0  0  0  0  0  0
  -20.8365   15.6612  -33.7355 C   0  0  0  0  0  0  0  0  0  0  0  0
  -19.6165   16.0045  -32.9488 C   0  0  0  0  0  0  0  0  0  0  0  0
  -18.4406   16.1690  -33.7701 N   0  0  0  0  0  0  0  0  0  0  0  0
  -18.4960   17.3001  -34.6066 C   0  0  0  0  0  0  0  0  0  0  0  0
  -17.2621   17.8832  -35.1378 C   0  0  2  0  0  0  0  0  0  0  0  0
  -17.1960   17.7794  -36.5362 O   0  0  0  0  0  0  0  0  0  0  0  0
  -15.9766   17.2858  -34.5959 C   0  0  1  0  0  0  0  0  0  0  0  0
  -14.9517   18.2041  -34.7680 O   0  0  0  0  0  0  0  0  0  0  0  0
  -16.2617   17.0132  -33.1321 C   0  0  2  0  0  0  0  0  0  0  0  0
  -15.1379   16.7643  -32.3915 O   0  0  0  0  0  0  0  0  0  0  0  0
  -17.2233   15.8236  -33.1727 C   0  0  1  0  0  0  0  0  0  0  0  0
  -17.2782   15.2643  -31.7869 C   0  0  0  0  0  0  0  0  0  0  0  0
  -17.8311   16.1066  -30.8511 O   0  0  0  0  0  0  0  0  0  0  0  0
  -19.0039   15.9285  -33.9105 Cl  0  0  0  0  0  0  0  0  0  0  0  0
  1  2  1  0
  2  3  1  0
  3  4  1  0
  4  5  1  0
  5  6  1  0
  6  7  1  0
  7  8  1  6
  7  9  1  0
  9 10  1  1
  9 11  1  0
 11 12  1  1
 11 13  1  0
 13 14  1  1
 14 15  1  0
 13  5  1  0
M  END
$$$$
