
     RDKit          3D

 31 34  0  0  0  0  0  0  0  0999 V2000
  -17.8030   19.7824  -37.3258 O   0  0  0  0  0  0  0  0  0  0  0  0
  -18.1096   18.6890  -37.8507 C   0  0  0  0  0  0  0  0  0  0  0  0
  -17.9360   18.5783  -39.2218 O   0  0  0  0  0  0  0  0  0  0  0  0
  -18.6276   17.5977  -37.0085 C   0  0  2  0  0  0  0  0  0  0  0  0
  -17.6332   16.5071  -36.7975 C   0  0  0  0  0  0  0  0  0  0  0  0
  -16.3134   17.0618  -36.4456 C   0  0  0  0  0  0  0  0  0  0  0  0
  -15.8821   18.1801  -37.1686 C   0  0  0  0  0  0  0  0  0  0  0  0
  -14.6532   18.7245  -36.8659 C   0  0  0  0  0  0  0  0  0  0  0  0
  -13.9199   18.1432  -35.8752 C   0  0  0  0  0  0  0  0  0  0  0  0
  -14.3340   17.0453  -35.1595 C   0  0  0  0  0  0  0  0  0  0  0  0
  -13.5512   16.4603  -34.1336 N   0  0  0  0  0  0  0  0  0  0  0  0
  -14.1027   15.6873  -33.0943 C   0  0  0  0  0  0  0  0  0  0  0  0
  -13.8206   15.0697  -32.0470 N   0  0  0  0  0  0  0  0  0  0  0  0
  -14.5800   14.4251  -31.2706 C   0  0  0  0  0  0  0  0  0  0  0  0
  -15.9554   14.3467  -31.5616 C   0  0  0  0  0  0  0  0  0  0  0  0
  -15.9476   15.3438  -33.1132 S   0  0  0  0  0  0  0  0  0  0  0  0
  -15.5520   16.5456  -35.4950 N   0  0  0  0  0  0  0  0  0  0  0  0
  -19.9310   17.0126  -37.4865 C   0  0  0  0  0  0  0  0  0  0  0  0
  -20.6820   16.4978  -36.2740 C   0  0  0  0  0  0  0  0  0  0  0  0
  -21.3696   17.6893  -35.6299 C   0  0  1  0  0  0  0  0  0  0  0  0
  -21.7102   17.4771  -34.3159 O   0  0  0  0  0  0  0  0  0  0  0  0
  -22.6623   16.5922  -33.8904 C   0  0  0  0  0  0  0  0  0  0  0  0
  -24.0189   16.7124  -34.0574 C   0  0  0  0  0  0  0  0  0  0  0  0
  -24.9246   15.7544  -33.5877 C   0  0  0  0  0  0  0  0  0  0  0  0
  -24.4865   14.6387  -32.9308 C   0  0  0  0  0  0  0  0  0  0  0  0
  -23.1344   14.5016  -32.7547 C   0  0  0  0  0  0  0  0  0  0  0  0
  -22.5685   13.0729  -31.9133 Cl  0  0  0  0  0  0  0  0  0  0  0  0
  -22.2395   15.4334  -33.2106 C   0  0  0  0  0  0  0  0  0  0  0  0
  -20.8951   15.2827  -33.0275 F   0  0  0  0  0  0  0  0  0  0  0  0
  -20.3444   18.8166  -35.6624 C   0  0  0  0  0  0  0  0  0  0  0  0
  -18.9546   18.2377  -35.6448 C   0  0  0  0  0  0  0  0  0  0  0  0
  1  2  2  0
  2  3  1  0
  2  4  1  0
  4  5  1  1
  5  6  1  0
  6  7  2  0
  7  8  1  0
  8  9  2  0
  9 10  1  0
 10 11  1  0
 11 12  1  0
 12 13  2  0
 13 14  1  0
 14 15  2  0
 15 16  1  0
 10 17  2  0
  4 18  1  0
 18 19  1  0
 19 20  1  0
 20 21  1  1
 21 22  1  0
 22 23  2  0
 23 24  1  0
 24 25  2  0
 25 26  1  0
 26 27  1  0
 26 28  2  0
 28 29  1  0
 20 30  1  0
 30 31  1  0
 31  4  1  0
 17  6  1  0
 28 22  1  0
 16 12  1  0
M  END
$$$$
