
     RDKit          3D

 29 29  0  0  0  0  0  0  0  0999 V2000
  -10.7142   43.5416  -19.3259 C   0  0  0  0  0  0  0  0  0  0  0  0
  -11.9524   43.6198  -20.0332 N   0  0  0  0  0  0  0  0  0  0  0  0
  -12.3832   44.9437  -20.3214 C   0  0  0  0  0  0  0  0  0  0  0  0
  -13.7194   45.3218  -19.7257 C   0  0  0  0  0  0  0  0  0  0  0  0
  -14.7410   44.3156  -19.9377 N   0  0  0  0  0  0  0  0  0  0  0  0
  -16.1115   44.6737  -19.8467 C   0  0  0  0  0  0  0  0  0  0  0  0
  -16.4948   45.9480  -19.4891 C   0  0  0  0  0  0  0  0  0  0  0  0
  -17.8326   46.2971  -19.4040 C   0  0  0  0  0  0  0  0  0  0  0  0
  -18.8395   45.3942  -19.6707 C   0  0  0  0  0  0  0  0  0  0  0  0
  -20.2234   45.8357  -19.5606 C   0  0  0  0  0  0  0  0  0  0  0  0
  -20.4698   47.0226  -19.2276 O   0  0  0  0  0  0  0  0  0  0  0  0
  -21.3519   45.0128  -19.8053 N   0  0  0  0  0  0  0  0  0  0  0  0
  -22.6852   45.4687  -19.6911 C   0  0  0  0  0  0  0  0  0  0  0  0
  -23.3363   45.3633  -18.4842 C   0  0  0  0  0  0  0  0  0  0  0  0
  -24.6577   45.8049  -18.3351 C   0  0  0  0  0  0  0  0  0  0  0  0
  -25.3205   46.3567  -19.4193 C   0  0  0  0  0  0  0  0  0  0  0  0
  -26.7095   46.8338  -19.3089 C   0  0  2  0  0  0  0  0  0  0  0  0
  -27.6159   46.5646  -20.5381 C   0  0  0  0  0  0  0  0  0  0  0  0
  -27.1956   47.9526  -20.1523 C   0  0  1  0  0  0  0  0  0  0  0  0
  -28.2477   48.8143  -19.6754 N   0  0  0  0  0  0  0  0  0  0  0  0
  -24.6737   46.4641  -20.6277 C   0  0  0  0  0  0  0  0  0  0  0  0
  -23.3583   46.0180  -20.7532 C   0  0  0  0  0  0  0  0  0  0  0  0
  -18.4712   44.1324  -20.0249 C   0  0  0  0  0  0  0  0  0  0  0  0
  -17.1282   43.7825  -20.1102 C   0  0  0  0  0  0  0  0  0  0  0  0
  -14.2872   42.9729  -20.2338 C   0  0  0  0  0  0  0  0  0  0  0  0
  -12.9852   42.7810  -19.4642 C   0  0  0  0  0  0  0  0  0  0  0  0
  -19.9599   45.5120  -19.7812 Cl  0  0  0  0  0  0  0  0  0  0  0  0
  -19.9589   45.5118  -19.7812 Cl  0  0  0  0  0  0  0  0  0  0  0  0
  -19.9638   45.5129  -19.7814 Cl  0  0  0  0  0  0  0  0  0  0  0  0
  1  2  1  0
  2  3  1  0
  3  4  1  0
  4  5  1  0
  5  6  1  0
  6  7  2  0
  7  8  1  0
  8  9  2  0
  9 10  1  0
 10 11  2  0
 10 12  1  0
 12 13  1  0
 13 14  2  0
 14 15  1  0
 15 16  2  0
 17 16  1  6
 17 18  1  0
 18 19  1  0
 19 20  1  1
 16 21  1  0
 21 22  2  0
  9 23  1  0
 23 24  2  0
  5 25  1  0
 25 26  1  0
 26  2  1  0
 24  6  1  0
 22 13  1  0
 19 17  1  0
M  END
$$$$
