
     RDKit          3D

 18 19  0  0  0  0  0  0  0  0999 V2000
  -17.8253   36.2528  -23.3920 C   0  0  0  0  0  0  0  0  0  0  0  0
  -17.9455   36.6986  -21.9695 C   0  0  0  0  0  0  0  0  0  0  0  0
  -19.2822   36.3454  -21.4382 C   0  0  0  0  0  0  0  0  0  0  0  0
  -20.0426   37.2625  -21.0415 O   0  0  0  0  0  0  0  0  0  0  0  0
  -19.7351   35.0475  -21.3588 O   0  0  0  0  0  0  0  0  0  0  0  0
  -17.8300   38.1914  -21.9518 C   0  0  0  0  0  0  0  0  0  0  0  0
  -17.4801   38.9273  -20.8686 C   0  0  0  0  0  0  0  0  0  0  0  0
  -17.3938   40.3143  -20.9695 C   0  0  0  0  0  0  0  0  0  0  0  0
  -17.6467   41.0024  -22.1330 C   0  0  0  0  0  0  0  0  0  0  0  0
  -17.5537   42.4348  -22.2897 C   0  0  0  0  0  0  0  0  0  0  0  0
  -18.4991   42.9758  -22.9788 O   0  0  0  0  0  0  0  0  0  0  0  0
  -16.5035   43.2601  -21.7425 C   0  0  0  0  0  0  0  0  0  0  0  0
  -15.3497   42.8801  -21.0604 C   0  0  0  0  0  0  0  0  0  0  0  0
  -14.5255   43.8144  -20.6405 C   0  0  0  0  0  0  0  0  0  0  0  0
  -14.8059   45.1551  -20.8770 C   0  0  0  0  0  0  0  0  0  0  0  0
  -16.3584   45.0406  -21.7592 S   0  0  0  0  0  0  0  0  0  0  0  0
  -18.0074   40.2429  -23.2517 C   0  0  0  0  0  0  0  0  0  0  0  0
  -18.0928   38.8727  -23.1514 C   0  0  0  0  0  0  0  0  0  0  0  0
  1  2  1  0
  2  3  1  0
  3  4  2  0
  3  5  1  0
  2  6  1  0
  6  7  2  0
  7  8  1  0
  8  9  2  0
  9 10  1  0
 10 11  2  0
 10 12  1  0
 12 13  2  0
 13 14  1  0
 14 15  2  0
 15 16  1  0
  9 17  1  0
 17 18  2  0
 18  6  1  0
 16 12  1  0
M  END
$$$$
