
     RDKit          3D

 33 35  0  0  0  0  0  0  0  0999 V2000
  -18.7684   48.6793  -17.9710 C   0  0  0  0  0  0  0  0  0  0  0  0
  -18.5225   47.7375  -19.1071 C   0  0  0  0  0  0  0  0  0  0  0  0
  -17.6924   46.5355  -18.6478 C   0  0  0  0  0  0  0  0  0  0  0  0
  -17.4853   45.6411  -19.8066 C   0  0  0  0  0  0  0  0  0  0  0  0
  -17.9926   45.9167  -20.9178 O   0  0  0  0  0  0  0  0  0  0  0  0
  -16.7097   44.4685  -19.6553 N   0  0  0  0  0  0  0  0  0  0  0  0
  -16.5163   43.6056  -20.7640 C   0  0  0  0  0  0  0  0  0  0  0  0
  -15.4952   43.7885  -21.6083 N   0  0  0  0  0  0  0  0  0  0  0  0
  -15.2916   42.9815  -22.6834 C   0  0  0  0  0  0  0  0  0  0  0  0
  -16.1556   41.9791  -22.8787 N   0  0  0  0  0  0  0  0  0  0  0  0
  -17.1982   41.7247  -22.0889 C   0  0  0  0  0  0  0  0  0  0  0  0
  -17.3845   42.5575  -21.0046 C   0  0  0  0  0  0  0  0  0  0  0  0
  -18.4793   42.0997  -20.3819 N   0  0  0  0  0  0  0  0  0  0  0  0
  -18.9644   41.0257  -21.0439 C   0  0  0  0  0  0  0  0  0  0  0  0
  -18.1609   40.7872  -22.1188 N   0  0  0  0  0  0  0  0  0  0  0  0
  -18.3411   39.7234  -23.0957 C   0  0  2  0  0  0  0  0  0  0  0  0
  -19.3456   40.0393  -23.9984 O   0  0  0  0  0  0  0  0  0  0  0  0
  -19.6014   38.8294  -24.6216 C   0  0  2  0  0  0  0  0  0  0  0  0
  -20.9186   38.8367  -25.3576 C   0  0  0  0  0  0  0  0  0  0  0  0
  -21.1924   37.5897  -25.8377 O   0  0  0  0  0  0  0  0  0  0  0  0
  -20.1170   36.3814  -25.4403 P   0  0  0  0  0  5  0  0  0  0  0  0
  -19.0921   36.1756  -26.5385 O   0  0  0  0  0  0  0  0  0  0  0  0
  -21.0126   34.9246  -25.3268 O   0  0  0  0  0  1  0  0  0  0  0  0
  -19.3854   36.6074  -23.9371 O   0  0  0  0  0  0  0  0  0  0  0  0
  -19.7252   37.8475  -23.4808 C   0  0  1  0  0  0  0  0  0  0  0  0
  -18.7399   38.4357  -22.5043 C   0  0  1  0  0  0  0  0  0  0  0  0
  -17.6804   37.5633  -22.1989 O   0  0  0  0  0  0  0  0  0  0  0  0
  -17.4711   37.0005  -20.9727 C   0  0  0  0  0  0  0  0  0  0  0  0
  -18.3284   37.3108  -20.0847 O   0  0  0  0  0  0  0  0  0  0  0  0
  -16.3609   36.1049  -20.6639 C   0  0  0  0  0  0  0  0  0  0  0  0
  -16.4498   34.7917  -21.3790 C   0  0  0  0  0  0  0  0  0  0  0  0
  -16.3725   35.0715  -22.8816 C   0  0  0  0  0  0  0  0  0  0  0  0
  -18.0621   40.6502  -21.7833 Na  0  0  0  0  0 15  0  0  0  0  0  0
  1  2  1  0
  2  3  1  0
  3  4  1  0
  4  5  2  0
  4  6  1  0
  6  7  1  0
  7  8  2  0
  8  9  1  0
  9 10  2  0
 10 11  1  0
 11 12  2  0
 12 13  1  0
 13 14  2  0
 14 15  1  0
 16 15  1  1
 16 17  1  0
 17 18  1  0
 18 19  1  1
 19 20  1  0
 20 21  1  0
 21 22  2  0
 21 23  1  0
 21 24  1  0
 25 24  1  6
 25 26  1  0
 26 27  1  6
 27 28  1  0
 28 29  2  0
 28 30  1  0
 30 31  1  0
 31 32  1  0
 12  7  1  0
 26 16  1  0
 15 11  1  0
 25 18  1  0
M  CHG  2  23  -1  33   1
M  END
$$$$
