
     RDKit          3D

 14 15  0  0  0  0  0  0  0  0999 V2000
  -18.2919   34.0362  -21.1932 O   0  0  0  0  0  0  0  0  0  0  0  0
  -18.7859   34.4125  -22.2854 C   0  0  0  0  0  0  0  0  0  0  0  0
  -19.4391   33.4619  -23.0546 O   0  0  0  0  0  0  0  0  0  0  0  0
  -18.6619   35.8040  -22.7037 C   0  0  0  0  0  0  0  0  0  0  0  0
  -19.1478   36.2794  -23.8852 C   0  0  0  0  0  0  0  0  0  0  0  0
  -19.0046   37.6151  -24.2391 C   0  0  0  0  0  0  0  0  0  0  0  0
  -19.4804   38.1328  -25.4208 O   0  0  0  0  0  0  0  0  0  0  0  0
  -18.3565   38.4799  -23.3767 C   0  0  0  0  0  0  0  0  0  0  0  0
  -18.1827   39.8207  -23.6728 C   0  0  0  0  0  0  0  0  0  0  0  0
  -17.5253   40.6614  -22.7806 C   0  0  0  0  0  0  0  0  0  0  0  0
  -17.0361   40.1727  -21.5864 C   0  0  0  0  0  0  0  0  0  0  0  0
  -17.2275   38.8321  -21.3247 C   0  0  0  0  0  0  0  0  0  0  0  0
  -17.8745   37.9797  -22.1912 C   0  0  0  0  0  0  0  0  0  0  0  0
  -18.0379   36.6611  -21.8848 N   0  0  0  0  0  0  0  0  0  0  0  0
  1  2  2  0
  2  3  1  0
  2  4  1  0
  4  5  2  0
  5  6  1  0
  6  7  1  0
  6  8  2  0
  8  9  1  0
  9 10  2  0
 10 11  1  0
 11 12  2  0
 12 13  1  0
 13 14  2  0
 14  4  1  0
 13  8  1  0
M  END
$$$$
