
     RDKit          3D

 15 15  0  0  0  0  0  0  0  0999 V2000
  -19.5646   39.0690  -22.3280 C   0  0  0  0  0  0  0  0  0  0  0  0
  -18.0626   39.0856  -22.0965 C   0  0  2  0  0  0  0  0  0  0  0  0
  -17.5323   40.3645  -22.5497 N   0  0  0  0  0  0  0  0  0  0  0  0
  -17.3833   38.0341  -22.9370 C   0  0  0  0  0  0  0  0  0  0  0  0
  -17.8361   36.6654  -22.5991 C   0  0  0  0  0  0  0  0  0  0  0  0
  -17.0917   35.8130  -21.8234 C   0  0  0  0  0  0  0  0  0  0  0  0
  -17.5267   34.5383  -21.5096 C   0  0  0  0  0  0  0  0  0  0  0  0
  -18.7294   34.1086  -21.9813 C   0  0  0  0  0  0  0  0  0  0  0  0
  -19.2293   32.8438  -21.7073 O   0  0  0  0  0  0  0  0  0  0  0  0
  -19.5010   34.9350  -22.7609 C   0  0  0  0  0  0  0  0  0  0  0  0
  -20.7366   34.4874  -23.2429 O   0  0  0  0  0  0  0  0  0  0  0  0
  -19.0690   36.2037  -23.0736 C   0  0  0  0  0  0  0  0  0  0  0  0
  -17.7613   38.9470  -20.6585 C   0  0  0  0  0  0  0  0  0  0  0  0
  -18.6788   38.6413  -19.8541 O   0  0  0  0  0  0  0  0  0  0  0  0
  -16.4747   39.1517  -20.1913 O   0  0  0  0  0  0  0  0  0  0  0  0
  2  1  1  1
  2  3  1  0
  2  4  1  0
  4  5  1  0
  5  6  2  0
  6  7  1  0
  7  8  2  0
  8  9  1  0
  8 10  1  0
 10 11  1  0
 10 12  2  0
  2 13  1  0
 13 14  2  0
 13 15  1  0
 12  5  1  0
M  END
$$$$
