
     RDKit          3D

 32 36  0  0  0  0  0  0  0  0999 V2000
  -24.0882   16.0990  -30.1844 C   0  0  0  0  0  0  0  0  0  0  0  0
  -24.0623   16.0832  -31.6473 C   0  0  0  0  0  0  0  0  0  0  0  0
  -24.0249   16.0552  -32.9011 C   0  0  0  0  0  0  0  0  0  0  0  0
  -23.9618   16.0335  -34.3477 C   0  0  2  0  0  0  0  0  0  0  0  0
  -25.2283   15.9771  -34.9023 O   0  0  0  0  0  0  0  0  0  0  0  0
  -23.1205   14.9116  -34.9231 C   0  0  0  0  0  0  0  0  0  0  0  0
  -21.8644   15.6364  -35.5352 C   0  0  0  0  0  0  0  0  0  0  0  0
  -21.8322   16.8288  -34.6905 C   0  0  1  0  0  0  0  0  0  0  0  0
  -20.9801   18.0229  -34.9732 C   0  0  2  0  0  0  0  0  0  0  0  0
  -19.7184   17.6543  -35.5787 C   0  0  0  0  0  0  0  0  0  0  0  0
  -18.6325   18.6342  -35.2512 C   0  0  0  0  0  0  0  0  0  0  0  0
  -18.6443   18.7829  -33.7597 C   0  0  0  0  0  0  0  0  0  0  0  0
  -17.5132   18.6496  -33.0935 C   0  0  0  0  0  0  0  0  0  0  0  0
  -17.5136   18.8009  -31.6753 C   0  0  0  0  0  0  0  0  0  0  0  0
  -16.8492   18.1102  -30.8962 O   0  0  0  0  0  0  0  0  0  0  0  0
  -18.4041   19.8889  -31.2159 C   0  0  0  0  0  0  0  0  0  0  0  0
  -19.7737   19.7941  -31.7870 C   0  0  0  0  0  0  0  0  0  0  0  0
  -19.9079   19.0792  -33.0775 C   0  0  0  0  0  0  0  0  0  0  0  0
  -21.0313   18.7855  -33.6717 C   0  0  0  0  0  0  0  0  0  0  0  0
  -22.3520   19.1223  -33.1486 C   0  0  1  0  0  0  0  0  0  0  0  0
  -22.7322   20.5270  -33.2939 C   0  0  0  0  0  0  0  0  0  0  0  0
  -22.6428   21.1971  -34.4883 C   0  0  0  0  0  0  0  0  0  0  0  0
  -23.0352   22.5219  -34.6716 C   0  0  0  0  0  0  0  0  0  0  0  0
  -23.5379   23.2304  -33.6231 C   0  0  0  0  0  0  0  0  0  0  0  0
  -23.9684   24.5465  -33.8304 N   0  0  0  0  0  0  0  0  0  0  0  0
  -24.7442   25.2295  -32.8067 C   0  0  0  0  0  0  0  0  0  0  0  0
  -23.7966   25.2365  -35.0906 C   0  0  0  0  0  0  0  0  0  0  0  0
  -23.6364   22.5556  -32.3940 C   0  0  0  0  0  0  0  0  0  0  0  0
  -23.2629   21.2850  -32.2366 C   0  0  0  0  0  0  0  0  0  0  0  0
  -23.4833   18.3555  -33.7502 C   0  0  0  0  0  0  0  0  0  0  0  0
  -23.2716   17.2969  -34.7466 C   0  0  2  0  0  0  0  0  0  0  0  0
  -23.7555   17.6197  -36.1339 C   0  0  0  0  0  0  0  0  0  0  0  0
  1  2  1  0
  2  3  3  0
  3  4  1  0
  4  5  1  6
  4  6  1  0
  6  7  1  0
  8  7  1  6
  8  9  1  0
  9 10  1  1
 10 11  1  0
 11 12  1  0
 12 13  2  0
 13 14  1  0
 14 15  2  0
 14 16  1  0
 16 17  1  0
 17 18  1  0
 18 19  2  0
 19 20  1  0
 20 21  1  6
 21 22  2  0
 22 23  1  0
 23 24  2  0
 24 25  1  0
 25 26  1  0
 25 27  1  0
 24 28  1  0
 28 29  2  0
 20 30  1  0
 30 31  1  0
 31 32  1  6
 31  4  1  0
 31  8  1  0
 19  9  1  0
 29 21  1  0
 18 12  1  0
M  END
$$$$
