
     RDKit          3D

 20 21  0  0  0  0  0  0  0  0999 V2000
  -21.8312   17.4753  -35.5653 C   0  0  0  0  0  0  0  0  0  0  0  0
  -20.7936   17.0706  -34.5697 C   0  0  0  0  0  0  0  0  0  0  0  0
  -19.7428   17.8762  -34.1961 C   0  0  0  0  0  0  0  0  0  0  0  0
  -18.8053   17.4489  -33.2652 C   0  0  0  0  0  0  0  0  0  0  0  0
  -18.9143   16.2004  -32.6965 C   0  0  0  0  0  0  0  0  0  0  0  0
  -17.9685   15.7367  -31.7391 N   0  0  0  0  0  0  0  0  0  0  0  0
  -16.6848   16.3386  -31.6417 C   0  0  0  0  0  0  0  0  0  0  0  0
  -16.5119   17.6062  -31.0984 C   0  0  0  0  0  0  0  0  0  0  0  0
  -17.6229   18.2756  -30.6544 F   0  0  0  0  0  0  0  0  0  0  0  0
  -15.2587   18.1820  -31.0062 C   0  0  0  0  0  0  0  0  0  0  0  0
  -14.1742   17.4644  -31.4692 C   0  0  0  0  0  0  0  0  0  0  0  0
  -14.2975   16.1966  -32.0191 C   0  0  0  0  0  0  0  0  0  0  0  0
  -15.5757   15.6577  -32.0915 C   0  0  0  0  0  0  0  0  0  0  0  0
  -15.8140   14.0525  -32.7764 Cl  0  0  0  0  0  0  0  0  0  0  0  0
  -19.9626   15.4020  -33.0721 C   0  0  0  0  0  0  0  0  0  0  0  0
  -20.1208   14.0286  -32.4807 C   0  0  0  0  0  0  0  0  0  0  0  0
  -20.6138   14.1462  -31.0767 C   0  0  0  0  0  0  0  0  0  0  0  0
  -20.4689   13.2421  -30.2302 O   0  0  0  0  0  0  0  0  0  0  0  0
  -21.2547   15.3083  -30.7112 O   0  0  0  0  0  0  0  0  0  0  0  0
  -20.9102   15.8164  -34.0039 C   0  0  0  0  0  0  0  0  0  0  0  0
  1  2  1  0
  2  3  2  0
  3  4  1  0
  4  5  2  0
  5  6  1  0
  6  7  1  0
  7  8  2  0
  8  9  1  0
  8 10  1  0
 10 11  2  0
 11 12  1  0
 12 13  2  0
 13 14  1  0
  5 15  1  0
 15 16  1  0
 16 17  1  0
 17 18  2  0
 17 19  1  0
 15 20  2  0
 20  2  1  0
 13  7  1  0
M  END
$$$$
