
     RDKit          3D

 36 37  0  0  0  0  0  0  0  0999 V2000
  -20.1117   33.8489  -20.3240 C   0  0  0  0  0  0  0  0  0  0  0  0
  -18.7562   33.3266  -20.7871 C   0  0  0  0  0  0  0  0  0  0  0  0
  -18.5639   33.7747  -22.2161 C   0  0  0  0  0  0  0  0  0  0  0  0
  -18.6012   35.2494  -22.2504 C   0  0  0  0  0  0  0  0  0  0  0  0
  -19.7888   35.9053  -22.4360 C   0  0  0  0  0  0  0  0  0  0  0  0
  -19.7846   37.2902  -22.4625 C   0  0  0  0  0  0  0  0  0  0  0  0
  -18.6066   37.9759  -22.3047 C   0  0  0  0  0  0  0  0  0  0  0  0
  -18.6276   39.4245  -22.3367 C   0  0  0  0  0  0  0  0  0  0  0  0
  -17.6993   40.1033  -21.5802 C   0  0  0  0  0  0  0  0  0  0  0  0
  -17.7143   41.4821  -21.6075 C   0  0  0  0  0  0  0  0  0  0  0  0
  -18.6261   42.1694  -22.3651 C   0  0  0  0  0  0  0  0  0  0  0  0
  -18.6384   43.6367  -22.3766 N   0  0  0  0  0  0  0  0  0  0  0  0
  -17.7830   44.2181  -23.3658 C   0  0  0  0  0  0  0  0  0  0  0  0
  -18.5249   44.3105  -24.6711 C   0  0  1  0  0  0  0  0  0  0  0  0
  -19.7027   45.1079  -24.5003 N   0  0  0  0  0  0  0  0  0  0  0  0
  -17.6905   44.9298  -25.7703 C   0  0  1  0  0  0  0  0  0  0  0  0
  -17.2364   46.3149  -25.4739 C   0  0  0  0  0  0  0  0  0  0  0  0
  -16.5351   44.0432  -26.1775 C   0  0  0  0  0  0  0  0  0  0  0  0
  -15.7840   44.7674  -27.2760 C   0  0  0  0  0  0  0  0  0  0  0  0
  -19.5021   44.2209  -21.4638 C   0  0  0  0  0  0  0  0  0  0  0  0
  -20.3132   43.4109  -20.8201 O   0  0  0  0  0  0  0  0  0  0  0  0
  -19.6683   45.6164  -21.0808 C   0  0  2  0  0  0  0  0  0  0  0  0
  -19.1234   46.8179  -21.6811 C   0  0  0  0  0  0  0  0  0  0  0  0
  -18.3560   46.2534  -20.5551 C   0  0  1  0  0  0  0  0  0  0  0  0
  -18.4660   46.8817  -19.2185 C   0  0  0  0  0  0  0  0  0  0  0  0
  -17.4778   46.7238  -18.2749 C   0  0  0  0  0  0  0  0  0  0  0  0
  -17.6007   47.3170  -17.0409 C   0  0  0  0  0  0  0  0  0  0  0  0
  -18.7380   48.0779  -16.7623 C   0  0  0  0  0  0  0  0  0  0  0  0
  -19.7042   48.2156  -17.7241 C   0  0  0  0  0  0  0  0  0  0  0  0
  -19.5479   47.6170  -18.9263 N   0  0  0  0  0  0  0  0  0  0  0  0
  -19.5491   41.4912  -23.1169 C   0  0  0  0  0  0  0  0  0  0  0  0
  -19.5439   40.1054  -23.0980 C   0  0  0  0  0  0  0  0  0  0  0  0
  -17.4095   37.3332  -22.1179 C   0  0  0  0  0  0  0  0  0  0  0  0
  -17.4287   35.9474  -22.0935 C   0  0  0  0  0  0  0  0  0  0  0  0
  -18.3027   41.3694  -22.1418 Cl  0  0  0  0  0  0  0  0  0  0  0  0
  -18.3033   41.3743  -22.1429 Cl  0  0  0  0  0  0  0  0  0  0  0  0
  1  2  1  0
  2  3  1  0
  3  4  1  0
  4  5  2  0
  5  6  1  0
  6  7  2  0
  7  8  1  0
  8  9  2  0
  9 10  1  0
 10 11  2  0
 11 12  1  0
 12 13  1  0
 13 14  1  0
 14 15  1  1
 14 16  1  0
 16 17  1  1
 16 18  1  0
 18 19  1  0
 12 20  1  0
 20 21  2  0
 22 20  1  6
 22 23  1  0
 23 24  1  0
 24 25  1  1
 25 26  2  0
 26 27  1  0
 27 28  2  0
 28 29  1  0
 29 30  2  0
 11 31  1  0
 31 32  2  0
  7 33  1  0
 33 34  2  0
 34  4  1  0
 32  8  1  0
 24 22  1  0
 30 25  1  0
M  END
$$$$
