
     RDKit          3D

 35 37  0  0  0  0  0  0  0  0999 V2000
  -19.9457   38.8043  -26.5394 C   0  0  0  0  0  0  0  0  0  0  0  0
  -19.7255   38.3319  -25.4649 C   0  0  0  0  0  0  0  0  0  0  0  0
  -19.4288   37.7565  -24.1254 C   0  0  0  0  0  0  0  0  0  0  0  0
  -20.0680   38.5736  -23.0738 C   0  0  0  0  0  0  0  0  0  0  0  0
  -20.1316   37.8481  -21.7536 C   0  0  0  0  0  0  0  0  0  0  0  0
  -19.1969   36.7344  -21.6379 C   0  0  0  0  0  0  0  0  0  0  0  0
  -17.8871   36.9548  -21.2019 C   0  0  0  0  0  0  0  0  0  0  0  0
  -17.0109   35.9538  -21.0809 N   0  0  0  0  0  0  0  0  0  0  0  0
  -17.3969   34.6987  -21.3864 C   0  0  0  0  0  0  0  0  0  0  0  0
  -16.5892   33.6250  -21.2974 N   0  0  0  0  0  0  0  0  0  0  0  0
  -16.9839   32.3804  -21.6044 C   0  0  0  0  0  0  0  0  0  0  0  0
  -16.0565   31.3105  -21.4752 N   0  0  0  0  0  0  0  0  0  0  0  0
  -18.2349   32.1589  -22.0233 N   0  0  0  0  0  0  0  0  0  0  0  0
  -19.1012   33.1754  -22.1388 C   0  0  0  0  0  0  0  0  0  0  0  0
  -20.4236   32.9384  -22.5871 N   0  0  0  0  0  0  0  0  0  0  0  0
  -18.6894   34.4639  -21.8196 C   0  0  0  0  0  0  0  0  0  0  0  0
  -19.5461   35.4803  -21.9316 N   0  0  0  0  0  0  0  0  0  0  0  0
  -19.4181   39.8803  -22.8409 C   0  0  0  0  0  0  0  0  0  0  0  0
  -20.1111   41.0548  -22.9437 C   0  0  0  0  0  0  0  0  0  0  0  0
  -19.4431   42.2750  -22.7083 C   0  0  0  0  0  0  0  0  0  0  0  0
  -18.1133   42.2830  -22.3802 C   0  0  0  0  0  0  0  0  0  0  0  0
  -17.4240   43.5498  -22.1068 C   0  0  0  0  0  0  0  0  0  0  0  0
  -16.1829   43.5002  -21.8219 O   0  0  0  0  0  0  0  0  0  0  0  0
  -18.0773   44.7898  -22.1507 N   0  0  0  0  0  0  0  0  0  0  0  0
  -17.4047   46.0927  -21.8826 C   0  0  1  0  0  0  0  0  0  0  0  0
  -17.8890   47.1170  -22.8260 C   0  0  0  0  0  0  0  0  0  0  0  0
  -17.1062   48.3002  -23.1716 C   0  0  0  0  0  0  0  0  0  0  0  0
  -17.6849   49.2156  -24.1345 C   0  0  0  0  0  0  0  0  0  0  0  0
  -18.4398   48.7419  -25.0382 O   0  0  0  0  0  0  0  0  0  0  0  0
  -17.4684   50.5805  -24.1254 O   0  0  0  0  0  0  0  0  0  0  0  0
  -17.6061   46.4289  -20.4707 C   0  0  0  0  0  0  0  0  0  0  0  0
  -17.1530   45.5913  -19.6105 O   0  0  0  0  0  0  0  0  0  0  0  0
  -18.2094   47.5262  -19.9337 O   0  0  0  0  0  0  0  0  0  0  0  0
  -17.4124   41.0927  -22.2774 C   0  0  0  0  0  0  0  0  0  0  0  0
  -18.0869   39.9038  -22.5128 C   0  0  0  0  0  0  0  0  0  0  0  0
  1  2  3  0
  2  3  1  0
  3  4  1  0
  4  5  1  0
  5  6  1  0
  6  7  2  0
  7  8  1  0
  8  9  2  0
  9 10  1  0
 10 11  2  0
 11 12  1  0
 11 13  1  0
 13 14  2  0
 14 15  1  0
 14 16  1  0
 16 17  2  0
  4 18  1  0
 18 19  2  0
 19 20  1  0
 20 21  2  0
 21 22  1  0
 22 23  2  0
 22 24  1  0
 24 25  1  0
 25 26  1  6
 26 27  1  0
 27 28  1  0
 28 29  2  0
 28 30  1  0
 25 31  1  0
 31 32  2  0
 31 33  1  0
 21 34  1  0
 34 35  2  0
 17  6  1  0
 35 18  1  0
 16  9  1  0
M  END
$$$$
