
     RDKit          3D

 24 27  0  0  0  0  0  0  0  0999 V2000
  -44.2396    9.1986  -37.0994 O   0  0  0  0  0  0  0  0  0  0  0  0
  -44.2700   10.4254  -36.8160 C   0  0  0  0  0  0  0  0  0  0  0  0
  -44.8125   10.7543  -35.5696 O   0  0  0  0  0  0  0  0  0  0  0  0
  -43.7704   11.4069  -37.7364 C   0  0  0  0  0  0  0  0  0  0  0  0
  -43.6503   12.7601  -37.4865 C   0  0  0  0  0  0  0  0  0  0  0  0
  -43.1514   13.3885  -38.5542 N   0  0  0  0  0  0  0  0  0  0  0  0
  -42.9425   12.4647  -39.5017 C   0  0  0  0  0  0  0  0  0  0  0  0
  -42.4450   12.5798  -40.7821 C   0  0  0  0  0  0  0  0  0  0  0  0
  -42.3255   11.4596  -41.5736 C   0  0  0  0  0  0  0  0  0  0  0  0
  -41.6882   11.6886  -43.1988 Cl  0  0  0  0  0  0  0  0  0  0  0  0
  -42.6949   10.2185  -41.1097 C   0  0  0  0  0  0  0  0  0  0  0  0
  -42.5478    9.0596  -41.9768 C   0  0  0  0  0  0  0  0  0  0  0  0
  -41.9161    7.9216  -41.5498 C   0  0  0  0  0  0  0  0  0  0  0  0
  -41.7969    6.8448  -42.4140 C   0  0  0  0  0  0  0  0  0  0  0  0
  -42.3008    6.8774  -43.7138 C   0  0  0  0  0  0  0  0  0  0  0  0
  -42.1185    5.6875  -44.5347 C   0  0  0  0  0  0  0  0  0  0  0  0
  -42.6572    5.8404  -45.8333 O   0  0  0  0  0  0  0  0  0  0  0  0
  -40.6514    5.3180  -44.6515 C   0  0  0  0  0  0  0  0  0  0  0  0
  -40.9666    3.9029  -44.1904 C   0  0  0  0  0  0  0  0  0  0  0  0
  -42.4128    4.3604  -43.9621 C   0  0  0  0  0  0  0  0  0  0  0  0
  -42.9271    8.0381  -44.1011 C   0  0  0  0  0  0  0  0  0  0  0  0
  -43.0598    9.1188  -43.2686 C   0  0  0  0  0  0  0  0  0  0  0  0
  -43.1866   10.1242  -39.8363 C   0  0  0  0  0  0  0  0  0  0  0  0
  -43.3215   11.2120  -39.0174 C   0  0  0  0  0  0  0  0  0  0  0  0
  1  2  2  0
  2  3  1  0
  2  4  1  0
  4  5  2  0
  5  6  1  0
  6  7  1  0
  7  8  2  0
  8  9  1  0
  9 10  1  0
  9 11  2  0
 11 12  1  0
 12 13  2  0
 13 14  1  0
 14 15  2  0
 15 16  1  0
 16 17  1  0
 16 18  1  0
 18 19  1  0
 19 20  1  0
 15 21  1  0
 21 22  2  0
 11 23  1  0
 23 24  2  0
 24  4  1  0
 24  7  1  0
 22 12  1  0
 20 16  1  0
M  END
$$$$
