
     RDKit          3D

 38 42  0  0  0  0  0  0  0  0999 V2000
  -25.9037   24.9763  -36.5076 C   0  0  0  0  0  0  0  0  0  0  0  0
  -24.8158   25.1565  -37.3774 O   0  0  0  0  0  0  0  0  0  0  0  0
  -23.8475   24.1727  -37.5512 C   0  0  0  0  0  0  0  0  0  0  0  0
  -23.4471   23.8783  -38.8632 C   0  0  0  0  0  0  0  0  0  0  0  0
  -22.4917   22.9150  -39.1166 C   0  0  0  0  0  0  0  0  0  0  0  0
  -22.0926   22.6288  -40.4389 N   0  0  0  0  0  0  0  0  0  0  0  0
  -23.0729   22.8402  -41.5075 C   0  0  0  0  0  0  0  0  0  0  0  0
  -22.3726   22.9137  -42.8525 C   0  0  0  0  0  0  0  0  0  0  0  0
  -21.1553   23.8008  -42.6571 C   0  0  0  0  0  0  0  0  0  0  0  0
  -20.5952   24.2033  -43.8600 O   0  0  0  0  0  0  0  0  0  0  0  0
  -20.1305   23.0364  -41.8807 C   0  0  0  0  0  0  0  0  0  0  0  0
  -20.8018   22.1374  -40.8477 C   0  0  0  0  0  0  0  0  0  0  0  0
  -21.9356   22.2425  -38.0290 C   0  0  0  0  0  0  0  0  0  0  0  0
  -22.3447   22.5488  -36.7502 C   0  0  0  0  0  0  0  0  0  0  0  0
  -23.2930   23.5043  -36.4931 C   0  0  0  0  0  0  0  0  0  0  0  0
  -23.6910   23.7934  -35.1780 N   0  0  0  0  0  0  0  0  0  0  0  0
  -23.2886   22.9855  -34.0536 C   0  0  0  0  0  0  0  0  0  0  0  0
  -23.4038   21.6230  -34.1333 C   0  0  0  0  0  0  0  0  0  0  0  0
  -23.0177   20.8164  -33.0486 C   0  0  0  0  0  0  0  0  0  0  0  0
  -23.1757   19.4018  -33.1431 N   0  0  0  0  0  0  0  0  0  0  0  0
  -23.1511   18.7327  -34.3691 C   0  0  0  0  0  0  0  0  0  0  0  0
  -23.5234   19.4193  -35.5057 C   0  0  0  0  0  0  0  0  0  0  0  0
  -23.5711   18.8138  -36.7394 C   0  0  0  0  0  0  0  0  0  0  0  0
  -23.2357   17.4794  -36.8346 C   0  0  0  0  0  0  0  0  0  0  0  0
  -22.8634   16.7806  -35.7192 C   0  0  0  0  0  0  0  0  0  0  0  0
  -22.8204   17.4178  -34.4730 C   0  0  0  0  0  0  0  0  0  0  0  0
  -22.2643   16.4741  -33.1439 S   0  0  0  0  0  6  0  0  0  0  0  0
  -20.8435   15.9849  -33.2988 O   0  0  0  0  0  0  0  0  0  0  0  0
  -22.3076   17.2960  -31.8533 O   0  0  0  0  0  0  0  0  0  0  0  0
  -23.2707   15.0494  -32.8998 C   0  0  0  0  0  0  0  0  0  0  0  0
  -24.1400   15.3492  -31.6545 C   0  0  0  0  0  0  0  0  0  0  0  0
  -24.2286   14.7909  -33.9988 C   0  0  0  0  0  0  0  0  0  0  0  0
  -22.5282   21.4189  -31.9201 C   0  0  0  0  0  0  0  0  0  0  0  0
  -22.0824   20.8947  -30.7084 C   0  0  0  0  0  0  0  0  0  0  0  0
  -21.7175   21.9943  -29.9541 C   0  0  0  0  0  0  0  0  0  0  0  0
  -21.9256   23.1144  -30.6562 N   0  0  0  0  0  0  0  0  0  0  0  0
  -22.4201   22.8150  -31.8626 C   0  0  0  0  0  0  0  0  0  0  0  0
  -22.8052   23.5430  -32.9337 N   0  0  0  0  0  0  0  0  0  0  0  0
  1  2  1  0
  2  3  1  0
  3  4  2  0
  4  5  1  0
  5  6  1  0
  6  7  1  0
  7  8  1  0
  8  9  1  0
  9 10  1  0
  9 11  1  0
 11 12  1  0
  5 13  2  0
 13 14  1  0
 14 15  2  0
 15 16  1  0
 16 17  1  0
 17 18  2  0
 18 19  1  0
 19 20  1  0
 20 21  1  0
 21 22  2  0
 22 23  1  0
 23 24  2  0
 24 25  1  0
 25 26  2  0
 26 27  1  0
 27 28  2  0
 27 29  2  0
 27 30  1  0
 30 31  1  0
 30 32  1  0
 19 33  2  0
 33 34  1  0
 34 35  2  0
 35 36  1  0
 36 37  1  0
 37 38  2  0
 15  3  1  0
 38 17  1  0
 12  6  1  0
 26 21  1  0
 37 33  1  0
M  END
$$$$
