
     RDKit          3D

 20 21  0  0  0  0  0  0  0  0999 V2000
  -30.5077   20.2853  -31.2603 N   0  0  0  0  0  0  0  0  0  0  0  0
  -30.1122   20.9383  -30.0530 C   0  0  0  0  0  0  0  0  0  0  0  0
  -30.4267   20.2841  -28.8845 C   0  0  0  0  0  0  0  0  0  0  0  0
  -31.1363   18.9829  -28.8981 C   0  0  0  0  0  0  0  0  0  0  0  0
  -32.6007   19.1463  -28.9063 C   0  0  0  0  0  0  0  0  0  0  0  0
  -33.3656   18.3097  -28.3913 O   0  0  0  0  0  0  0  0  0  0  0  0
  -33.1484   20.2779  -29.5132 O   0  0  0  0  0  0  0  0  0  0  0  0
  -30.0783   20.8483  -27.6714 C   0  0  0  0  0  0  0  0  0  0  0  0
  -29.4223   22.0555  -27.6553 C   0  0  0  0  0  0  0  0  0  0  0  0
  -29.1171   22.6948  -28.8642 C   0  0  0  0  0  0  0  0  0  0  0  0
  -29.4497   22.1615  -30.0674 C   0  0  0  0  0  0  0  0  0  0  0  0
  -29.1277   22.7584  -31.3227 C   0  0  0  0  0  0  0  0  0  0  0  0
  -29.9422   22.5328  -32.3203 O   0  0  0  0  0  0  0  0  0  0  0  0
  -28.0009   23.6020  -31.6689 C   0  0  0  0  0  0  0  0  0  0  0  0
  -26.7470   23.4125  -31.1741 C   0  0  0  0  0  0  0  0  0  0  0  0
  -25.6632   24.2288  -31.5527 C   0  0  0  0  0  0  0  0  0  0  0  0
  -25.8428   25.2587  -32.4475 C   0  0  0  0  0  0  0  0  0  0  0  0
  -24.3803   26.3799  -32.9692 Br  0  0  0  0  0  0  0  0  0  0  0  0
  -27.1022   25.4627  -32.9542 C   0  0  0  0  0  0  0  0  0  0  0  0
  -28.1625   24.6607  -32.5814 C   0  0  0  0  0  0  0  0  0  0  0  0
  1  2  1  0
  2  3  2  0
  3  4  1  0
  4  5  1  0
  5  6  2  0
  5  7  1  0
  3  8  1  0
  8  9  2  0
  9 10  1  0
 10 11  2  0
 11 12  1  0
 12 13  2  0
 12 14  1  0
 14 15  2  0
 15 16  1  0
 16 17  2  0
 17 18  1  0
 17 19  1  0
 19 20  2  0
 11  2  1  0
 20 14  1  0
M  END
$$$$
