
     RDKit          3D

 25 28  0  0  0  0  0  0  0  0999 V2000
  -27.1646   28.0639  -33.9698 O   0  0  0  0  0  0  0  0  0  0  0  0
  -26.2175   28.0255  -34.9845 C   0  0  0  0  0  0  0  0  0  0  0  0
  -25.6248   26.8506  -35.4206 C   0  0  0  0  0  0  0  0  0  0  0  0
  -24.6865   26.8196  -36.4271 C   0  0  0  0  0  0  0  0  0  0  0  0
  -24.0509   25.5940  -36.8948 C   0  0  0  0  0  0  0  0  0  0  0  0
  -23.8956   25.3016  -38.2164 N   0  0  0  0  0  0  0  0  0  0  0  0
  -23.2882   24.1199  -38.3378 C   0  0  0  0  0  0  0  0  0  0  0  0
  -22.9681   23.5040  -39.6260 C   0  0  0  0  0  0  0  0  0  0  0  0
  -22.9471   24.2326  -40.7955 C   0  0  0  0  0  0  0  0  0  0  0  0
  -22.6466   23.6524  -42.0048 C   0  0  0  0  0  0  0  0  0  0  0  0
  -22.3591   22.3143  -42.0566 C   0  0  0  0  0  0  0  0  0  0  0  0
  -22.3774   21.5791  -40.8958 C   0  0  0  0  0  0  0  0  0  0  0  0
  -22.6825   22.1666  -39.6666 C   0  0  0  0  0  0  0  0  0  0  0  0
  -23.0671   23.6804  -37.1091 N   0  0  0  0  0  0  0  0  0  0  0  0
  -23.5210   24.5574  -36.1754 C   0  0  0  0  0  0  0  0  0  0  0  0
  -23.4751   24.4608  -34.7378 C   0  0  0  0  0  0  0  0  0  0  0  0
  -23.9486   23.3227  -34.1276 C   0  0  0  0  0  0  0  0  0  0  0  0
  -23.9246   23.1846  -32.7329 C   0  0  0  0  0  0  0  0  0  0  0  0
  -23.4346   24.1756  -32.0035 N   0  0  0  0  0  0  0  0  0  0  0  0
  -22.9631   25.3022  -32.5599 C   0  0  0  0  0  0  0  0  0  0  0  0
  -22.9820   25.4471  -33.9222 C   0  0  0  0  0  0  0  0  0  0  0  0
  -24.3421   28.0237  -37.0067 C   0  0  0  0  0  0  0  0  0  0  0  0
  -24.9232   29.2230  -36.5872 C   0  0  0  0  0  0  0  0  0  0  0  0
  -25.8623   29.2287  -35.5755 C   0  0  0  0  0  0  0  0  0  0  0  0
  -26.5990   30.7447  -35.0428 Cl  0  0  0  0  0  0  0  0  0  0  0  0
  1  2  1  0
  2  3  2  0
  3  4  1  0
  4  5  1  0
  5  6  1  0
  6  7  1  0
  7  8  1  0
  8  9  2  0
  9 10  1  0
 10 11  2  0
 11 12  1  0
 12 13  2  0
  7 14  2  0
 14 15  1  0
 15 16  1  0
 16 17  2  0
 17 18  1  0
 18 19  2  0
 19 20  1  0
 20 21  2  0
  4 22  2  0
 22 23  1  0
 23 24  2  0
 24 25  1  0
 24  2  1  0
 15  5  2  0
 21 16  1  0
 13  8  1  0
M  END
$$$$
