
     RDKit          3D

 10 10  0  0  0  0  0  0  0  0999 V2000
  -17.6435   32.4053  -22.2439 C   0  0  0  0  0  0  0  0  0  0  0  0
  -17.4244   33.7853  -22.1106 O   0  0  0  0  0  0  0  0  0  0  0  0
  -18.3739   34.7539  -22.2949 C   0  0  0  0  0  0  0  0  0  0  0  0
  -19.5251   34.3824  -22.6413 O   0  0  0  0  0  0  0  0  0  0  0  0
  -18.1265   36.1817  -22.1132 C   0  0  0  0  0  0  0  0  0  0  0  0
  -19.0240   37.1217  -22.5725 C   0  0  0  0  0  0  0  0  0  0  0  0
  -18.7970   38.4925  -22.4039 C   0  0  0  0  0  0  0  0  0  0  0  0
  -17.6509   38.9146  -21.7644 C   0  0  0  0  0  0  0  0  0  0  0  0
  -16.7836   37.9899  -21.3211 N   0  0  0  0  0  0  0  0  0  0  0  0
  -16.9961   36.6551  -21.4807 C   0  0  0  0  0  0  0  0  0  0  0  0
  1  2  1  0
  2  3  1  0
  3  4  2  0
  3  5  1  0
  5  6  2  0
  6  7  1  0
  7  8  2  0
  8  9  1  0
  9 10  2  0
 10  5  1  0
M  END
$$$$
