
     RDKit          3D

 22 24  0  0  0  0  0  0  0  0999 V2000
  -15.5240   43.1025  -21.7214 C   0  0  0  0  0  0  0  0  0  0  0  0
  -16.9478   42.6006  -21.8190 C   0  0  0  0  0  0  0  0  0  0  0  0
  -16.9992   41.3221  -22.4195 O   0  0  0  0  0  0  0  0  0  0  0  0
  -17.8786   40.3888  -21.8980 C   0  0  0  0  0  0  0  0  0  0  0  0
  -18.8920   40.8085  -21.2250 O   0  0  0  0  0  0  0  0  0  0  0  0
  -17.7441   38.9520  -22.0544 C   0  0  0  0  0  0  0  0  0  0  0  0
  -16.5896   38.3378  -22.4513 N   0  0  0  0  0  0  0  0  0  0  0  0
  -16.7646   37.0075  -22.5017 C   0  0  0  0  0  0  0  0  0  0  0  0
  -18.0280   36.8000  -22.1352 N   0  0  0  0  0  0  0  0  0  0  0  0
  -18.6668   37.9608  -21.8528 C   0  0  0  0  0  0  0  0  0  0  0  0
  -20.0433   38.1672  -21.4315 C   0  0  0  0  0  0  0  0  0  0  0  0
  -21.0385   37.4266  -22.1868 N   0  0  0  0  0  0  0  0  0  0  0  0
  -22.1487   38.1787  -22.7785 C   0  0  0  0  0  0  0  0  0  0  0  0
  -21.0316   36.0211  -22.4041 C   0  0  0  0  0  0  0  0  0  0  0  0
  -22.0785   35.4951  -22.8054 O   0  0  0  0  0  0  0  0  0  0  0  0
  -19.9041   35.1221  -22.2005 C   0  0  0  0  0  0  0  0  0  0  0  0
  -20.2459   33.7921  -22.1209 C   0  0  0  0  0  0  0  0  0  0  0  0
  -19.2764   32.8353  -21.9131 C   0  0  0  0  0  0  0  0  0  0  0  0
  -19.6461   31.5263  -21.8391 F   0  0  0  0  0  0  0  0  0  0  0  0
  -17.9485   33.1776  -21.7799 C   0  0  0  0  0  0  0  0  0  0  0  0
  -17.6086   34.5097  -21.8601 C   0  0  0  0  0  0  0  0  0  0  0  0
  -18.5661   35.4759  -22.0681 C   0  0  0  0  0  0  0  0  0  0  0  0
  1  2  1  0
  2  3  1  0
  3  4  1  0
  4  5  2  0
  4  6  1  0
  6  7  1  0
  7  8  2  0
  8  9  1  0
  9 10  1  0
 10 11  1  0
 11 12  1  0
 12 13  1  0
 12 14  1  0
 14 15  2  0
 14 16  1  0
 16 17  2  0
 17 18  1  0
 18 19  1  0
 18 20  2  0
 20 21  1  0
 21 22  2  0
 10  6  2  0
 22 16  1  0
 22  9  1  0
M  END
$$$$
