
     RDKit          3D

 36 40  0  0  0  0  0  0  0  0999 V2000
  -21.2125   22.9853  -41.7399 C   0  0  0  0  0  0  0  0  0  0  0  0
  -21.3969   23.3955  -40.3059 C   0  0  0  0  0  0  0  0  0  0  0  0
  -20.9979   24.8462  -40.1765 C   0  0  0  0  0  0  0  0  0  0  0  0
  -22.8796   23.3061  -39.9941 C   0  0  0  0  0  0  0  0  0  0  0  0
  -23.1082   23.3309  -38.5029 C   0  0  0  0  0  0  0  0  0  0  0  0
  -22.6102   21.9910  -37.9383 C   0  0  2  0  0  0  0  0  0  0  0  0
  -23.7796   21.0602  -38.1469 C   0  0  0  0  0  0  0  0  0  0  0  0
  -23.6602   19.8668  -38.4631 O   0  0  0  0  0  0  0  0  0  0  0  0
  -25.0546   21.6126  -37.9639 O   0  0  0  0  0  0  0  0  0  0  0  0
  -22.3273   22.0885  -36.4934 C   0  0  0  0  0  0  0  0  0  0  0  0
  -20.9571   21.8033  -36.0336 C   0  0  0  0  0  0  0  0  0  0  0  0
  -20.1902   20.7748  -36.7688 C   0  0  2  0  0  0  0  0  0  0  0  0
  -18.8172   21.3181  -37.1134 C   0  0  0  0  0  0  0  0  0  0  0  0
  -20.8541   20.3634  -38.0579 C   0  0  2  0  0  0  0  0  0  0  0  0
  -19.9348   19.5408  -38.8258 C   0  0  0  0  0  0  0  0  0  0  0  0
  -19.9648   19.4426  -40.0820 O   0  0  0  0  0  0  0  0  0  0  0  0
  -18.9179   18.7840  -38.1058 C   0  0  0  0  0  0  0  0  0  0  0  0
  -18.9117   18.7435  -36.7577 C   0  0  0  0  0  0  0  0  0  0  0  0
  -19.9650   19.4845  -36.0012 C   0  0  2  0  0  0  0  0  0  0  0  0
  -21.2226   18.6351  -35.9634 C   0  0  0  0  0  0  0  0  0  0  0  0
  -19.5952   19.7757  -34.5824 C   0  0  0  0  0  0  0  0  0  0  0  0
  -18.8016   18.6221  -33.9763 C   0  0  0  0  0  0  0  0  0  0  0  0
  -17.5618   18.4074  -34.7552 C   0  0  1  0  0  0  0  0  0  0  0  0
  -16.5528   17.5530  -34.0154 C   0  0  0  0  0  0  0  0  0  0  0  0
  -17.1805   16.4631  -33.1898 C   0  0  0  0  0  0  0  0  0  0  0  0
  -15.7691   18.4420  -33.0352 C   0  0  0  0  0  0  0  0  0  0  0  0
  -15.5344   17.0301  -34.9582 C   0  0  0  0  0  0  0  0  0  0  0  0
  -14.7595   16.1059  -34.6629 O   0  0  0  0  0  0  0  0  0  0  0  0
  -15.4564   17.6399  -36.2791 C   0  0  0  0  0  0  0  0  0  0  0  0
  -14.1862   17.7560  -36.9685 C   0  0  0  0  0  0  0  0  0  0  0  0
  -13.1848   17.8579  -37.5282 N   0  0  0  0  0  0  0  0  0  0  0  0
  -16.5386   18.0927  -36.8814 C   0  0  0  0  0  0  0  0  0  0  0  0
  -17.8387   17.9427  -36.1361 C   0  0  2  0  0  0  0  0  0  0  0  0
  -18.1693   16.4640  -36.2146 C   0  0  0  0  0  0  0  0  0  0  0  0
  -21.5132   21.4747  -38.8003 C   0  0  2  0  0  0  0  0  0  0  0  0
  -20.5925   22.5196  -39.3454 C   0  0  0  0  0  0  0  0  0  0  0  0
  1  2  1  0
  2  3  1  0
  2  4  1  0
  4  5  1  0
  5  6  1  0
  6  7  1  1
  7  8  2  0
  7  9  1  0
  6 10  1  0
 10 11  1  0
 11 12  1  0
 12 13  1  6
 12 14  1  0
 14 15  1  6
 15 16  2  0
 15 17  1  0
 17 18  2  0
 18 19  1  0
 19 20  1  1
 19 21  1  0
 21 22  1  0
 23 22  1  1
 23 24  1  0
 24 25  1  0
 24 26  1  0
 24 27  1  0
 27 28  2  0
 27 29  1  0
 29 30  1  0
 30 31  3  0
 29 32  2  0
 32 33  1  0
 33 34  1  1
 14 35  1  0
 35 36  1  1
 36  2  1  0
 35  6  1  0
 19 12  1  0
 33 23  1  0
 33 18  1  0
M  END
$$$$
