
     RDKit          3D

 36 40  0  0  0  0  0  0  0  0999 V2000
  -18.3772   14.3066  -23.8444 C   0  0  0  0  0  0  0  0  0  0  0  0
  -19.2396   13.2232  -23.5395 O   0  0  0  0  0  0  0  0  0  0  0  0
  -20.6087   13.4399  -23.4666 C   0  0  0  0  0  0  0  0  0  0  0  0
  -21.4911   12.4737  -23.0448 C   0  0  0  0  0  0  0  0  0  0  0  0
  -22.8613   12.6599  -22.9606 C   0  0  0  0  0  0  0  0  0  0  0  0
  -23.3863   13.8813  -23.3178 C   0  0  0  0  0  0  0  0  0  0  0  0
  -24.8030   14.1750  -23.2552 C   0  0  0  0  0  0  0  0  0  0  0  0
  -25.4401   13.7479  -22.2291 O   0  0  0  0  0  0  0  0  0  0  0  0
  -25.5866   14.9135  -24.2462 C   0  0  0  0  0  0  0  0  0  0  0  0
  -26.9222   15.4034  -23.7722 C   0  0  0  0  0  0  0  0  0  0  0  0
  -27.4700   16.3001  -24.8558 C   0  0  0  0  0  0  0  0  0  0  0  0
  -26.7815   17.5790  -24.8884 N   0  0  0  0  0  0  0  0  0  0  0  0
  -26.9344   18.2243  -26.1737 C   0  0  0  0  0  0  0  0  0  0  0  0
  -28.3260   18.6254  -26.3700 C   0  0  0  0  0  0  0  0  0  0  0  0
  -29.1115   18.6401  -25.3804 O   0  0  0  0  0  0  0  0  0  0  0  0
  -28.8050   19.0091  -27.6671 N   0  0  0  0  0  0  0  0  0  0  0  0
  -30.1894   19.4065  -27.8647 C   0  0  0  0  0  0  0  0  0  0  0  0
  -30.2648   20.7217  -28.5534 C   0  0  0  0  0  0  0  0  0  0  0  0
  -30.8317   20.9039  -29.7489 N   0  0  0  0  0  0  0  0  0  0  0  0
  -30.9109   22.0766  -30.3817 C   0  0  0  0  0  0  0  0  0  0  0  0
  -30.3804   23.2056  -29.7897 C   0  0  0  0  0  0  0  0  0  0  0  0
  -29.7908   23.0385  -28.5549 C   0  0  0  0  0  0  0  0  0  0  0  0
  -29.2899   24.0617  -27.9789 O   0  0  0  0  0  0  0  0  0  0  0  0
  -29.7384   21.8327  -27.9620 N   0  0  0  0  0  0  0  0  0  0  0  0
  -30.4410   24.5352  -30.4512 C   0  0  0  0  0  0  0  0  0  0  0  0
  -30.3001   24.2867  -31.8327 O   0  0  0  0  0  0  0  0  0  0  0  0
  -31.4574   23.6348  -32.2298 C   0  0  0  0  0  0  0  0  0  0  0  0
  -31.5504   22.2333  -31.7169 C   0  0  0  0  0  0  0  0  0  0  0  0
  -27.9203   18.9358  -28.7885 C   0  0  0  0  0  0  0  0  0  0  0  0
  -27.7449   17.5934  -29.4029 C   0  0  0  0  0  0  0  0  0  0  0  0
  -27.7629   17.2657  -30.8312 C   0  0  0  0  0  0  0  0  0  0  0  0
  -29.0465   17.0045  -30.0270 C   0  0  0  0  0  0  0  0  0  0  0  0
  -25.3949   17.4299  -24.5086 C   0  0  0  0  0  0  0  0  0  0  0  0
  -24.8158   16.0642  -24.7872 C   0  0  0  0  0  0  0  0  0  0  0  0
  -22.4932   14.8588  -23.7457 C   0  0  0  0  0  0  0  0  0  0  0  0
  -21.1351   14.6605  -23.8242 C   0  0  0  0  0  0  0  0  0  0  0  0
  1  2  1  0
  2  3  1  0
  3  4  2  0
  4  5  1  0
  5  6  2  0
  6  7  1  0
  7  8  2  0
  7  9  1  0
  9 10  1  0
 10 11  1  0
 11 12  1  0
 12 13  1  0
 13 14  1  0
 14 15  2  0
 14 16  1  0
 16 17  1  0
 17 18  1  0
 18 19  2  0
 19 20  1  0
 20 21  2  0
 21 22  1  0
 22 23  2  0
 22 24  1  0
 21 25  1  0
 25 26  1  0
 26 27  1  0
 27 28  1  0
 16 29  1  0
 29 30  1  0
 30 31  1  0
 31 32  1  0
 12 33  1  0
 33 34  1  0
  6 35  1  0
 35 36  2  0
 36  3  1  0
 34  9  1  0
 24 18  1  0
 32 30  1  0
 28 20  1  0
M  END
$$$$
