
     RDKit          3D

 34 36  0  0  0  0  0  0  0  0999 V2000
  -18.3883   -4.1836  -30.3835 C   0  0  0  0  0  0  0  0  0  0  0  0
  -17.5706   -4.0127  -29.1603 C   0  0  0  0  0  0  0  0  0  0  0  0
  -18.1723   -3.9020  -27.9010 C   0  0  0  0  0  0  0  0  0  0  0  0
  -17.4080   -3.7444  -26.7791 C   0  0  0  0  0  0  0  0  0  0  0  0
  -16.0369   -3.6966  -26.9100 C   0  0  0  0  0  0  0  0  0  0  0  0
  -15.4414   -3.8077  -28.1710 C   0  0  0  0  0  0  0  0  0  0  0  0
  -16.2050   -3.9662  -29.3017 C   0  0  0  0  0  0  0  0  0  0  0  0
  -15.6210   -4.0768  -30.5524 O   0  0  0  0  0  0  0  0  0  0  0  0
  -14.2260   -4.0254  -30.6616 C   0  0  0  0  0  0  0  0  0  0  0  0
  -13.7755   -4.1607  -32.0819 C   0  0  0  0  0  0  0  0  0  0  0  0
  -13.5749   -3.1834  -32.9822 N   0  0  0  0  0  0  0  0  0  0  0  0
  -13.7697   -1.7876  -32.7134 C   0  0  0  0  0  0  0  0  0  0  0  0
  -15.1319   -1.3207  -32.9979 C   0  0  0  0  0  0  0  0  0  0  0  0
  -16.0040   -2.1126  -33.4336 O   0  0  0  0  0  0  0  0  0  0  0  0
  -15.4642   -0.0122  -32.7897 O   0  0  0  0  0  0  0  0  0  0  0  0
  -16.7393    0.5536  -33.0268 C   0  0  0  0  0  0  0  0  0  0  0  0
  -17.2723    1.2006  -31.7398 C   0  0  0  0  0  0  0  0  0  0  0  0
  -18.5803    1.8659  -32.0212 C   0  0  0  0  0  0  0  0  0  0  0  0
  -19.1087    2.4513  -30.7252 C   0  0  0  0  0  0  0  0  0  0  0  0
  -18.3547    3.0356  -32.9665 C   0  0  0  0  0  0  0  0  0  0  0  0
  -17.8406    2.4296  -34.2666 C   0  0  0  0  0  0  0  0  0  0  0  0
  -16.5425    1.6973  -33.9950 C   0  0  0  0  0  0  0  0  0  0  0  0
  -15.8959    1.3066  -35.2819 C   0  0  0  0  0  0  0  0  0  0  0  0
  -15.7398    2.5216  -36.1797 C   0  0  0  0  0  0  0  0  0  0  0  0
  -16.8469    0.3582  -36.0157 C   0  0  0  0  0  0  0  0  0  0  0  0
  -13.1673   -3.7526  -34.1517 C   0  0  0  0  0  0  0  0  0  0  0  0
  -12.8335   -3.2184  -35.3681 C   0  0  0  0  0  0  0  0  0  0  0  0
  -12.4535   -4.0902  -36.3709 C   0  0  0  0  0  0  0  0  0  0  0  0
  -12.4125   -5.4486  -36.1525 C   0  0  0  0  0  0  0  0  0  0  0  0
  -12.7484   -5.9612  -34.9350 C   0  0  0  0  0  0  0  0  0  0  0  0
  -13.1361   -5.1068  -33.9028 C   0  0  0  0  0  0  0  0  0  0  0  0
  -13.5096   -5.3495  -32.6338 N   0  0  0  0  0  4  0  0  0  0  0  0
  -13.5986   -6.6759  -32.0039 C   0  0  0  0  0  0  0  0  0  0  0  0
  -15.8796   -1.6109  -32.4972 Cl  0  0  0  0  0 15  0  0  0  0  0  0
  1  2  1  0
  2  3  2  0
  3  4  1  0
  4  5  2  0
  5  6  1  0
  6  7  2  0
  7  8  1  0
  8  9  1  0
  9 10  1  0
 10 11  1  0
 11 12  1  0
 12 13  1  0
 13 14  2  0
 13 15  1  0
 15 16  1  0
 16 17  1  0
 17 18  1  0
 18 19  1  0
 18 20  1  0
 20 21  1  0
 21 22  1  0
 22 23  1  0
 23 24  1  0
 23 25  1  0
 11 26  1  0
 26 27  2  0
 27 28  1  0
 28 29  2  0
 29 30  1  0
 30 31  2  0
 31 32  1  0
 32 33  1  0
  7  2  1  0
 32 10  2  0
 22 16  1  0
 31 26  1  0
M  CHG  2  32   1  34  -1
M  END
$$$$
