
     RDKit          3D

 10  9  0  0  0  0  0  0  0  0999 V2000
  -16.7800   37.2617  -22.3831 O   0  0  0  0  0  0  0  0  0  0  0  0
  -17.5061   36.9549  -21.4039 C   0  0  0  0  0  0  0  0  0  0  0  0
  -18.0792   37.9584  -20.6670 O   0  0  0  0  0  0  0  0  0  0  0  0
  -17.7175   35.5193  -21.0801 C   0  0  2  0  0  0  0  0  0  0  0  0
  -16.1489   34.6413  -21.0220 S   0  0  0  0  0  0  0  0  0  0  0  0
  -18.6737   34.9609  -22.0845 C   0  0  2  0  0  0  0  0  0  0  0  0
  -20.1713   35.9663  -22.2518 S   0  0  0  0  0  0  0  0  0  0  0  0
  -19.0265   33.5492  -21.8214 C   0  0  0  0  0  0  0  0  0  0  0  0
  -18.4882   32.6264  -22.4778 O   0  0  0  0  0  0  0  0  0  0  0  0
  -19.9547   33.2082  -20.8499 O   0  0  0  0  0  0  0  0  0  0  0  0
  1  2  2  0
  2  3  1  0
  2  4  1  0
  4  5  1  6
  4  6  1  0
  6  7  1  1
  6  8  1  0
  8  9  2  0
  8 10  1  0
M  END
$$$$
