
     RDKit          3D

 31 34  0  0  0  0  0  0  0  0999 V2000
  -27.9438   21.1069  -29.5797 Cl  0  0  0  0  0  0  0  0  0  0  0  0
  -31.9479   14.9485  -25.6764 C   0  0  0  0  0  0  0  0  0  0  0  0
  -30.9429   15.8943  -26.1085 N   0  0  0  0  0  0  0  0  0  0  0  0
  -29.6889   15.9076  -25.6147 C   0  0  0  0  0  0  0  0  0  0  0  0
  -28.9941   16.9407  -26.2424 C   0  0  0  0  0  0  0  0  0  0  0  0
  -27.6009   17.3266  -26.0437 C   0  0  0  0  0  0  0  0  0  0  0  0
  -27.1714   17.8882  -24.8528 C   0  0  0  0  0  0  0  0  0  0  0  0
  -25.8839   18.2584  -24.6097 C   0  0  0  0  0  0  0  0  0  0  0  0
  -24.9681   18.0633  -25.5966 N   0  0  0  0  0  0  0  0  0  0  0  0
  -25.3597   17.5140  -26.7761 C   0  0  0  0  0  0  0  0  0  0  0  0
  -26.6461   17.1401  -27.0308 C   0  0  0  0  0  0  0  0  0  0  0  0
  -29.8834   17.5347  -27.1212 C   0  0  0  0  0  0  0  0  0  0  0  0
  -29.5222   18.6909  -27.9648 C   0  0  0  0  0  0  0  0  0  0  0  0
  -29.2957   18.5150  -29.2992 C   0  0  0  0  0  0  0  0  0  0  0  0
  -28.9552   19.5802  -30.1046 C   0  0  0  0  0  0  0  0  0  0  0  0
  -28.8319   20.8508  -29.6005 C   0  0  0  0  0  0  0  0  0  0  0  0
  -28.4918   21.9158  -30.3920 O   0  0  0  0  0  0  0  0  0  0  0  0
  -28.2315   21.7741  -31.7723 C   0  0  0  0  0  0  0  0  0  0  0  0
  -27.8779   23.1233  -32.3256 C   0  0  0  0  0  0  0  0  0  0  0  0
  -28.5936   23.7054  -33.3254 C   0  0  0  0  0  0  0  0  0  0  0  0
  -28.2265   24.9546  -33.8365 C   0  0  0  0  0  0  0  0  0  0  0  0
  -27.1268   25.6035  -33.3193 C   0  0  0  0  0  0  0  0  0  0  0  0
  -26.7216   26.8441  -33.7770 C   0  0  0  0  0  0  0  0  0  0  0  0
  -25.6342   27.4504  -33.2289 C   0  0  0  0  0  0  0  0  0  0  0  0
  -24.8915   26.8807  -32.2121 C   0  0  0  0  0  0  0  0  0  0  0  0
  -25.3022   25.6300  -31.7542 C   0  0  0  0  0  0  0  0  0  0  0  0
  -26.4054   24.9889  -32.2936 C   0  0  0  0  0  0  0  0  0  0  0  0
  -26.8024   23.7951  -31.8462 N   0  0  0  0  0  0  0  0  0  0  0  0
  -29.0708   20.9927  -28.2398 C   0  0  0  0  0  0  0  0  0  0  0  0
  -29.4108   19.9517  -27.4152 C   0  0  0  0  0  0  0  0  0  0  0  0
  -31.0401   16.8749  -27.0093 N   0  0  0  0  0  0  0  0  0  0  0  0
  2  3  1  0
  3  4  1  0
  4  5  2  0
  5  6  1  0
  6  7  2  0
  7  8  1  0
  8  9  2  0
  9 10  1  0
 10 11  2  0
  5 12  1  0
 12 13  1  0
 13 14  2  0
 14 15  1  0
 15 16  2  0
 16 17  1  0
 17 18  1  0
 18 19  1  0
 19 20  2  0
 20 21  1  0
 21 22  2  0
 22 23  1  0
 23 24  2  0
 24 25  1  0
 25 26  2  0
 26 27  1  0
 27 28  2  0
 16 29  1  0
 29 30  2  0
 12 31  2  0
 31  3  1  0
 11  6  1  0
 30 13  1  0
 28 19  1  0
 27 22  1  0
M  END
$$$$
