
     RDKit          3D

 27 29  0  0  0  0  0  0  0  0999 V2000
  -21.4744   31.1512  -22.5033 C   0  0  0  0  0  0  0  0  0  0  0  0
  -21.0663   32.1112  -23.5761 C   0  0  0  0  0  0  0  0  0  0  0  0
  -19.9944   32.9975  -23.0960 N   0  0  0  0  0  0  0  0  0  0  0  0
  -20.0639   34.3933  -23.3012 C   0  0  0  0  0  0  0  0  0  0  0  0
  -20.7519   34.8367  -24.2336 O   0  0  0  0  0  0  0  0  0  0  0  0
  -19.3346   35.2803  -22.4253 C   0  0  0  0  0  0  0  0  0  0  0  0
  -18.6935   35.0222  -21.2730 N   0  0  0  0  0  0  0  0  0  0  0  0
  -18.1456   36.1084  -20.7722 N   0  0  0  0  0  0  0  0  0  0  0  0
  -18.4043   37.1612  -21.5882 C   0  0  0  0  0  0  0  0  0  0  0  0
  -17.9868   38.5471  -21.4140 C   0  0  0  0  0  0  0  0  0  0  0  0
  -17.0785   39.1065  -22.2777 C   0  0  0  0  0  0  0  0  0  0  0  0
  -16.6721   40.4334  -22.1173 C   0  0  0  0  0  0  0  0  0  0  0  0
  -15.5175   41.1740  -23.2021 Cl  0  0  0  0  0  0  0  0  0  0  0  0
  -17.1733   41.2067  -21.0911 C   0  0  0  0  0  0  0  0  0  0  0  0
  -16.8009   42.5173  -20.8962 O   0  0  0  0  0  0  0  0  0  0  0  0
  -18.0937   40.6555  -20.2080 C   0  0  0  0  0  0  0  0  0  0  0  0
  -18.4662   39.3487  -20.4010 C   0  0  0  0  0  0  0  0  0  0  0  0
  -19.3850   38.7979  -19.5196 O   0  0  0  0  0  0  0  0  0  0  0  0
  -19.1506   36.6419  -22.6256 C   0  0  0  0  0  0  0  0  0  0  0  0
  -19.6586   37.4215  -23.7532 C   0  0  0  0  0  0  0  0  0  0  0  0
  -19.1732   37.2751  -25.0409 C   0  0  0  0  0  0  0  0  0  0  0  0
  -19.6296   37.9897  -26.1112 C   0  0  0  0  0  0  0  0  0  0  0  0
  -20.6398   38.9255  -25.9251 C   0  0  0  0  0  0  0  0  0  0  0  0
  -21.1234   39.6698  -27.0060 O   0  0  0  0  0  0  0  0  0  0  0  0
  -22.4747   40.0605  -27.0341 C   0  0  0  0  0  0  0  0  0  0  0  0
  -21.1354   39.0856  -24.6517 C   0  0  0  0  0  0  0  0  0  0  0  0
  -20.6639   38.3545  -23.5747 C   0  0  0  0  0  0  0  0  0  0  0  0
  1  2  1  0
  2  3  1  0
  3  4  1  0
  4  5  2  0
  4  6  1  0
  6  7  2  0
  7  8  1  0
  8  9  1  0
  9 10  1  0
 10 11  2  0
 11 12  1  0
 12 13  1  0
 12 14  2  0
 14 15  1  0
 14 16  1  0
 16 17  2  0
 17 18  1  0
  9 19  2  0
 19 20  1  0
 20 21  2  0
 21 22  1  0
 22 23  2  0
 23 24  1  0
 24 25  1  0
 23 26  1  0
 26 27  2  0
 19  6  1  0
 27 20  1  0
 17 10  1  0
M  END
$$$$
