
     RDKit          3D

 24 24  0  0  0  0  0  0  0  0999 V2000
  -16.5117   40.8203  -22.4765 N   0  0  0  0  0  0  0  0  0  0  0  0
  -17.9225   41.2163  -22.3663 C   0  0  1  0  0  0  0  0  0  0  0  0
  -18.6431   40.3128  -21.3822 C   0  0  0  0  0  0  0  0  0  0  0  0
  -18.6064   38.8984  -21.7903 C   0  0  0  0  0  0  0  0  0  0  0  0
  -17.6009   38.0307  -21.4090 C   0  0  0  0  0  0  0  0  0  0  0  0
  -17.6029   36.7098  -21.8135 C   0  0  0  0  0  0  0  0  0  0  0  0
  -16.0372   35.4441  -21.1938 I   0  0  0  0  0  0  0  0  0  0  0  0
  -18.6329   36.2376  -22.6194 C   0  0  0  0  0  0  0  0  0  0  0  0
  -18.6294   34.9250  -23.0177 O   0  0  0  0  0  0  0  0  0  0  0  0
  -19.2310   33.8972  -22.3029 C   0  0  0  0  0  0  0  0  0  0  0  0
  -19.8888   34.1385  -21.1141 C   0  0  0  0  0  0  0  0  0  0  0  0
  -20.4780   33.0765  -20.4305 C   0  0  0  0  0  0  0  0  0  0  0  0
  -20.4218   31.7798  -20.9126 C   0  0  0  0  0  0  0  0  0  0  0  0
  -21.0183   30.7248  -20.2144 O   0  0  0  0  0  0  0  0  0  0  0  0
  -19.7534   31.5786  -22.1073 C   0  0  0  0  0  0  0  0  0  0  0  0
  -19.6511   29.6236  -22.8640 I   0  0  0  0  0  0  0  0  0  0  0  0
  -19.1579   32.6166  -22.8089 C   0  0  0  0  0  0  0  0  0  0  0  0
  -19.6305   37.0739  -23.0051 C   0  0  0  0  0  0  0  0  0  0  0  0
  -21.2125   36.4014  -24.2270 I   0  0  0  0  0  0  0  0  0  0  0  0
  -19.6067   38.3890  -22.5885 C   0  0  0  0  0  0  0  0  0  0  0  0
  -17.9284   42.6003  -21.8582 C   0  0  0  0  0  0  0  0  0  0  0  0
  -18.2447   42.8238  -20.6750 O   0  0  0  0  0  0  0  0  0  0  0  0
  -17.5863   43.6454  -22.6844 O   0  0  0  0  0  1  0  0  0  0  0  0
  -18.8148   36.8732  -21.8767 Na  0  0  0  0  0 15  0  0  0  0  0  0
  2  1  1  1
  2  3  1  0
  3  4  1  0
  4  5  2  0
  5  6  1  0
  6  7  1  0
  6  8  2  0
  8  9  1  0
  9 10  1  0
 10 11  2  0
 11 12  1  0
 12 13  2  0
 13 14  1  0
 13 15  1  0
 15 16  1  0
 15 17  2  0
  8 18  1  0
 18 19  1  0
 18 20  2  0
  2 21  1  0
 21 22  2  0
 21 23  1  0
 20  4  1  0
 17 10  1  0
M  CHG  2  23  -1  24   1
M  END
$$$$
