
     RDKit          3D

 36 38  0  0  0  0  0  0  0  0999 V2000
  -19.4750   45.9151  -18.7092 C   0  0  0  0  0  0  0  0  0  0  0  0
  -19.7358   46.0321  -20.1169 O   0  0  0  0  0  0  0  0  0  0  0  0
  -18.8518   45.4637  -21.0299 C   0  0  0  0  0  0  0  0  0  0  0  0
  -17.6733   45.8460  -21.0397 O   0  0  0  0  0  0  0  0  0  0  0  0
  -19.2470   44.4552  -21.9600 N   0  0  0  0  0  0  0  0  0  0  0  0
  -18.2405   43.8874  -22.8036 C   0  0  1  0  0  0  0  0  0  0  0  0
  -17.9711   44.8862  -23.9444 C   0  0  0  0  0  0  0  0  0  0  0  0
  -16.9248   43.6135  -22.1631 C   0  0  0  0  0  0  0  0  0  0  0  0
  -17.0132   42.7831  -20.9796 N   0  0  0  0  0  0  0  0  0  0  0  0
  -17.5517   41.4447  -21.0445 C   0  0  0  0  0  0  0  0  0  0  0  0
  -17.5878   40.6859  -19.9577 N   0  0  0  0  0  0  0  0  0  0  0  0
  -18.0884   39.4588  -19.9779 C   0  0  0  0  0  0  0  0  0  0  0  0
  -18.5837   38.9648  -21.1635 C   0  0  0  0  0  0  0  0  0  0  0  0
  -18.5590   39.7296  -22.3061 C   0  0  0  0  0  0  0  0  0  0  0  0
  -19.1088   39.1360  -23.5072 C   0  0  0  0  0  0  0  0  0  0  0  0
  -19.7158   39.7465  -24.5956 C   0  0  0  0  0  0  0  0  0  0  0  0
  -20.0966   38.7991  -25.4825 N   0  0  0  0  0  0  0  0  0  0  0  0
  -20.7689   38.9494  -26.7559 C   0  0  0  0  0  0  0  0  0  0  0  0
  -19.8003   38.7335  -27.9249 C   0  0  0  0  0  0  0  0  0  0  0  0
  -21.3664   40.3203  -26.9183 C   0  0  0  0  0  0  0  0  0  0  0  0
  -19.7439   37.6443  -24.9746 N   0  0  0  0  0  0  0  0  0  0  0  0
  -19.1418   37.7981  -23.7800 C   0  0  0  0  0  0  0  0  0  0  0  0
  -18.6402   36.6829  -22.9940 C   0  0  0  0  0  0  0  0  0  0  0  0
  -17.3524   36.6174  -22.5041 C   0  0  0  0  0  0  0  0  0  0  0  0
  -16.9170   35.5267  -21.7626 C   0  0  0  0  0  0  0  0  0  0  0  0
  -15.2895   35.4335  -21.1433 Cl  0  0  0  0  0  0  0  0  0  0  0  0
  -17.7898   34.4637  -21.4966 C   0  0  0  0  0  0  0  0  0  0  0  0
  -19.0693   34.5044  -21.9695 C   0  0  0  0  0  0  0  0  0  0  0  0
  -20.0223   33.4879  -21.7331 N   0  0  0  0  0  0  0  0  0  0  0  0
  -19.7626   31.8137  -21.8008 S   0  0  0  0  0  6  0  0  0  0  0  0
  -18.9038   31.2182  -23.2062 C   0  0  0  0  0  0  0  0  0  0  0  0
  -18.9482   31.4030  -20.5819 O   0  0  0  0  0  0  0  0  0  0  0  0
  -21.1167   31.1332  -21.6600 O   0  0  0  0  0  0  0  0  0  0  0  0
  -19.4658   35.6158  -22.7094 C   0  0  0  0  0  0  0  0  0  0  0  0
  -20.7502   35.6856  -23.2022 F   0  0  0  0  0  0  0  0  0  0  0  0
  -18.0368   40.9588  -22.2048 N   0  0  0  0  0  0  0  0  0  0  0  0
  1  2  1  0
  2  3  1  0
  3  4  2  0
  3  5  1  0
  5  6  1  0
  6  7  1  6
  6  8  1  0
  8  9  1  0
  9 10  1  0
 10 11  2  0
 11 12  1  0
 12 13  2  0
 13 14  1  0
 14 15  1  0
 15 16  2  0
 16 17  1  0
 17 18  1  0
 18 19  1  0
 18 20  1  0
 17 21  1  0
 21 22  2  0
 22 23  1  0
 23 24  2  0
 24 25  1  0
 25 26  1  0
 25 27  2  0
 27 28  1  0
 28 29  1  0
 29 30  1  0
 30 31  1  0
 30 32  2  0
 30 33  2  0
 28 34  2  0
 34 35  1  0
 14 36  2  0
 36 10  1  0
 22 15  1  0
 34 23  1  0
M  END
$$$$
