
     RDKit          3D

 22 24  0  0  0  0  0  0  0  0999 V2000
  -29.7367   18.9525  -27.3768 Br  0  0  0  0  0  0  0  0  0  0  0  0
  -33.0896   16.1890  -25.4111 C   0  0  0  0  0  0  0  0  0  0  0  0
  -32.4754   17.1250  -26.2449 O   0  0  0  0  0  0  0  0  0  0  0  0
  -31.1293   17.4536  -26.1558 C   0  0  0  0  0  0  0  0  0  0  0  0
  -30.2879   16.8802  -25.2337 C   0  0  0  0  0  0  0  0  0  0  0  0
  -28.9320   17.2316  -25.1669 C   0  0  0  0  0  0  0  0  0  0  0  0
  -28.3972   18.1658  -26.0256 C   0  0  0  0  0  0  0  0  0  0  0  0
  -29.2655   18.7218  -26.9366 C   0  0  0  0  0  0  0  0  0  0  0  0
  -30.5972   18.4026  -27.0317 C   0  0  0  0  0  0  0  0  0  0  0  0
  -31.2361   19.1117  -28.0381 O   0  0  0  0  0  0  0  0  0  0  0  0
  -30.2032   19.6691  -28.8818 C   0  0  1  0  0  0  0  0  0  0  0  0
  -30.7264   20.9849  -29.3457 C   0  0  0  0  0  0  0  0  0  0  0  0
  -29.6010   21.9917  -29.4880 C   0  0  1  0  0  0  0  0  0  0  0  0
  -30.1766   23.2146  -29.9241 O   0  0  0  0  0  0  0  0  0  0  0  0
  -29.0710   22.1707  -28.1052 C   0  0  0  0  0  0  0  0  0  0  0  0
  -28.8012   21.0807  -27.4074 C   0  0  0  0  0  0  0  0  0  0  0  0
  -29.0216   19.7550  -27.9951 C   0  0  1  0  0  0  0  0  0  0  0  0
  -27.7344   19.2955  -28.6689 C   0  0  0  0  0  0  0  0  0  0  0  0
  -26.5924   19.6730  -27.7547 C   0  0  0  0  0  0  0  0  0  0  0  0
  -26.1805   18.5648  -26.9419 N   0  0  0  0  0  0  0  0  0  0  0  0
  -24.7706   18.4886  -26.7040 C   0  0  0  0  0  0  0  0  0  0  0  0
  -26.9631   18.3455  -25.7553 C   0  0  0  0  0  0  0  0  0  0  0  0
  2  3  1  0
  3  4  1  0
  4  5  2  0
  5  6  1  0
  6  7  2  0
  7  8  1  0
  8  9  2  0
  9 10  1  0
 10 11  1  0
 11 12  1  1
 12 13  1  0
 13 14  1  1
 13 15  1  0
 15 16  2  0
 16 17  1  0
 17 18  1  6
 18 19  1  0
 19 20  1  0
 20 21  1  0
 20 22  1  0
  9  4  1  0
 17 11  1  0
 22  7  1  0
 17  8  1  0
M  END
$$$$
