
     RDKit          3D

 13 14  0  0  0  0  0  0  0  0999 V2000
  -20.2992   37.2445  -22.3626 C   0  0  0  0  0  0  0  0  0  0  0  0
  -19.1312   36.4051  -22.0707 C   0  0  0  0  0  0  0  0  0  0  0  0
  -17.9389   37.0337  -21.6908 C   0  0  0  0  0  0  0  0  0  0  0  0
  -16.8824   36.1831  -21.4317 C   0  0  0  0  0  0  0  0  0  0  0  0
  -15.7977   36.7072  -21.0887 O   0  0  0  0  0  0  0  0  0  0  0  0
  -16.9772   34.8704  -21.5314 O   0  0  0  0  0  0  0  0  0  0  0  0
  -18.0898   34.2643  -21.8870 C   0  0  0  0  0  0  0  0  0  0  0  0
  -18.2158   32.9015  -21.9986 C   0  0  0  0  0  0  0  0  0  0  0  0
  -19.3779   32.2622  -22.3703 C   0  0  0  0  0  0  0  0  0  0  0  0
  -19.4431   30.8604  -22.4664 O   0  0  0  0  0  0  0  0  0  0  0  0
  -20.4796   33.0397  -22.6466 C   0  0  0  0  0  0  0  0  0  0  0  0
  -20.3876   34.4324  -22.5433 C   0  0  0  0  0  0  0  0  0  0  0  0
  -19.2028   35.0312  -22.1671 C   0  0  0  0  0  0  0  0  0  0  0  0
  1  2  1  0
  2  3  2  0
  3  4  1  0
  4  5  2  0
  4  6  1  0
  6  7  1  0
  7  8  2  0
  8  9  1  0
  9 10  1  0
  9 11  2  0
 11 12  1  0
 12 13  2  0
 13  2  1  0
 13  7  1  0
M  END
$$$$
