
     RDKit          3D

 18 19  0  0  0  0  0  0  0  0999 V2000
  -18.3763   41.9953  -20.1537 N   0  0  0  0  0  0  0  0  0  0  0  0
  -17.9298   41.9793  -21.4778 C   0  0  0  0  0  0  0  0  0  0  0  0
  -17.4680   43.0234  -22.2265 N   0  0  0  0  0  0  0  0  0  0  0  0
  -17.1633   42.5717  -23.3804 O   0  0  0  0  0  0  0  0  0  0  0  0
  -17.3707   41.3218  -23.4962 N   0  0  0  0  0  0  0  0  0  0  0  0
  -17.8591   40.8783  -22.3221 C   0  0  0  0  0  0  0  0  0  0  0  0
  -18.2285   39.5113  -22.0233 C   0  0  0  0  0  0  0  0  0  0  0  0
  -18.4252   38.6811  -22.9779 N   0  0  0  0  0  0  0  0  0  0  0  0
  -18.6711   37.3080  -22.6343 C   0  0  0  0  0  0  0  0  0  0  0  0
  -19.9483   36.7895  -22.6807 C   0  0  0  0  0  0  0  0  0  0  0  0
  -20.1941   35.4802  -22.3484 C   0  0  0  0  0  0  0  0  0  0  0  0
  -19.1697   34.6409  -21.9570 C   0  0  0  0  0  0  0  0  0  0  0  0
  -19.4086   33.3502  -21.6289 F   0  0  0  0  0  0  0  0  0  0  0  0
  -17.8856   35.1633  -21.9107 C   0  0  0  0  0  0  0  0  0  0  0  0
  -16.5518   34.1202  -21.4151 Cl  0  0  0  0  0  0  0  0  0  0  0  0
  -17.6456   36.4749  -22.2445 C   0  0  0  0  0  0  0  0  0  0  0  0
  -18.3736   39.1073  -20.6595 N   0  0  0  0  0  0  0  0  0  0  0  0
  -18.5633   40.0820  -19.7313 O   0  0  0  0  0  0  0  0  0  0  0  0
  1  2  1  0
  2  3  2  0
  3  4  1  0
  4  5  1  0
  5  6  2  0
  6  7  1  0
  7  8  2  0
  8  9  1  0
  9 10  2  0
 10 11  1  0
 11 12  2  0
 12 13  1  0
 12 14  1  0
 14 15  1  0
 14 16  2  0
  7 17  1  0
 17 18  1  0
  6  2  1  0
 16  9  1  0
M  END
$$$$
