
     RDKit          3D

 24 27  0  0  0  0  0  0  0  0999 V2000
  -21.2261   22.0698  -42.5358 C   0  0  0  0  0  0  0  0  0  0  0  0
  -21.5359   21.0559  -41.5413 N   0  0  0  0  0  0  0  0  0  0  0  0
  -21.2300   19.7413  -42.0207 C   0  0  0  0  0  0  0  0  0  0  0  0
  -20.9915   21.3587  -40.2546 C   0  0  0  0  0  0  0  0  0  0  0  0
  -21.7810   22.3256  -39.4714 C   0  0  0  0  0  0  0  0  0  0  0  0
  -21.1824   23.2878  -38.6650 C   0  0  0  0  0  0  0  0  0  0  0  0
  -21.9076   24.1971  -37.9278 C   0  0  0  0  0  0  0  0  0  0  0  0
  -23.2755   24.1774  -37.9705 C   0  0  0  0  0  0  0  0  0  0  0  0
  -24.1181   25.1042  -37.2211 C   0  0  0  0  0  0  0  0  0  0  0  0
  -25.0835   25.8483  -37.7889 N   0  0  0  0  0  0  0  0  0  0  0  0
  -25.6869   26.6012  -36.8521 C   0  0  0  0  0  0  0  0  0  0  0  0
  -26.7068   27.5287  -36.8132 C   0  0  0  0  0  0  0  0  0  0  0  0
  -27.0663   28.1205  -35.6080 C   0  0  0  0  0  0  0  0  0  0  0  0
  -26.4424   27.8235  -34.4151 C   0  0  0  0  0  0  0  0  0  0  0  0
  -25.4177   26.8903  -34.4602 C   0  0  0  0  0  0  0  0  0  0  0  0
  -25.0615   26.2991  -35.6761 C   0  0  0  0  0  0  0  0  0  0  0  0
  -24.0849   25.3715  -35.8865 N   0  0  0  0  0  0  0  0  0  0  0  0
  -23.1553   24.7192  -35.0392 C   0  0  0  0  0  0  0  0  0  0  0  0
  -22.6644   25.4889  -33.8572 C   0  0  0  0  0  0  0  0  0  0  0  0
  -23.6752   25.8309  -32.8935 N   0  0  0  0  0  0  0  0  0  0  0  0
  -24.8162   26.6410  -33.1488 C   0  0  0  0  0  0  0  0  0  0  0  0
  -25.3753   27.2042  -32.1732 O   0  0  0  0  0  0  0  0  0  0  0  0
  -23.8774   23.2283  -38.7661 C   0  0  0  0  0  0  0  0  0  0  0  0
  -23.1592   22.3158  -39.5061 C   0  0  0  0  0  0  0  0  0  0  0  0
  1  2  1  0
  2  3  1  0
  2  4  1  0
  4  5  1  0
  5  6  2  0
  6  7  1  0
  7  8  2  0
  8  9  1  0
  9 10  2  0
 10 11  1  0
 11 12  2  0
 12 13  1  0
 13 14  2  0
 14 15  1  0
 15 16  2  0
 16 17  1  0
 17 18  1  0
 18 19  1  0
 19 20  1  0
 20 21  1  0
 21 22  2  0
  8 23  1  0
 23 24  2  0
 24  5  1  0
 17  9  1  0
 16 11  1  0
 21 15  1  0
M  END
$$$$
