
     RDKit          3D

 27 29  0  0  0  0  0  0  0  0999 V2000
   -0.6055   16.4141  -18.4183 C   0  0  0  0  0  0  0  0  0  0  0  0
    0.2395   17.6388  -18.6064 C   0  0  0  0  0  0  0  0  0  0  0  0
    0.5732   18.0821  -19.8668 C   0  0  0  0  0  0  0  0  0  0  0  0
    1.3564   19.2186  -20.0588 C   0  0  0  0  0  0  0  0  0  0  0  0
    1.8359   19.9564  -19.0052 C   0  0  0  0  0  0  0  0  0  0  0  0
    2.6275   21.1676  -19.1091 C   0  0  0  0  0  0  0  0  0  0  0  0
    2.2335   22.3549  -18.4861 C   0  0  0  0  0  0  0  0  0  0  0  0
    2.9514   23.5185  -18.5262 C   0  0  0  0  0  0  0  0  0  0  0  0
    4.1411   23.5074  -19.2311 C   0  0  0  0  0  0  0  0  0  0  0  0
    4.8593   24.6677  -19.2724 F   0  0  0  0  0  0  0  0  0  0  0  0
    4.5679   22.3669  -19.8584 C   0  0  0  0  0  0  0  0  0  0  0  0
    3.8100   21.1914  -19.7995 C   0  0  0  0  0  0  0  0  0  0  0  0
    4.3175   19.9956  -20.4963 C   0  0  0  0  0  0  0  0  0  0  0  0
    4.4659   20.1200  -21.8637 O   0  0  0  0  0  0  0  0  0  0  0  0
    4.9639   19.3487  -22.8470 C   0  0  0  0  0  0  0  0  0  0  0  0
    4.3464   19.4614  -24.1071 C   0  0  0  0  0  0  0  0  0  0  0  0
    4.7694   18.7243  -25.1795 C   0  0  0  0  0  0  0  0  0  0  0  0
    5.8188   17.8336  -25.0878 C   0  0  0  0  0  0  0  0  0  0  0  0
    6.2943   17.0236  -26.2408 C   0  0  0  0  0  0  0  0  0  0  0  0
    5.1322   16.2841  -26.8911 C   0  0  0  0  0  0  0  0  0  0  0  0
    4.5123   17.2080  -27.8804 C   0  0  0  0  0  0  0  0  0  0  0  0
    3.4178   16.8896  -28.4452 O   0  0  0  0  0  0  0  0  0  0  0  0
    5.1024   18.4217  -28.2077 O   0  0  0  0  0  0  0  0  0  0  0  0
    6.4045   17.7428  -23.8438 C   0  0  0  0  0  0  0  0  0  0  0  0
    6.0034   18.4667  -22.7536 C   0  0  0  0  0  0  0  0  0  0  0  0
    1.4852   19.4876  -17.7302 C   0  0  0  0  0  0  0  0  0  0  0  0
    0.7120   18.3650  -17.5370 C   0  0  0  0  0  0  0  0  0  0  0  0
  1  2  1  0
  2  3  2  0
  3  4  1  0
  4  5  2  0
  5  6  1  0
  6  7  2  0
  7  8  1  0
  8  9  2  0
  9 10  1  0
  9 11  1  0
 11 12  2  0
 12 13  1  0
 13 14  1  0
 14 15  1  0
 15 16  2  0
 16 17  1  0
 17 18  2  0
 18 19  1  0
 19 20  1  0
 20 21  1  0
 21 22  2  0
 21 23  1  0
 18 24  1  0
 24 25  2  0
  5 26  1  0
 26 27  2  0
 27  2  1  0
 12  6  1  0
 25 15  1  0
M  END
$$$$
