
     RDKit          3D

 28 31  0  0  0  0  0  0  0  0999 V2000
  -21.8244   35.3688  -20.0444 C   0  0  0  0  0  0  0  0  0  0  0  0
  -21.3496   34.9200  -21.3873 C   0  0  0  0  0  0  0  0  0  0  0  0
  -20.0794   34.1746  -21.3951 C   0  0  0  0  0  0  0  0  0  0  0  0
  -20.1420   32.7959  -21.1305 C   0  0  0  0  0  0  0  0  0  0  0  0
  -18.9822   32.1218  -21.1425 N   0  0  0  0  0  0  0  0  0  0  0  0
  -17.8081   32.7288  -21.3953 C   0  0  0  0  0  0  0  0  0  0  0  0
  -17.7373   34.0395  -21.6481 N   0  0  0  0  0  0  0  0  0  0  0  0
  -18.8948   34.7973  -21.6519 C   0  0  0  0  0  0  0  0  0  0  0  0
  -18.8154   36.1705  -21.9127 N   0  0  0  0  0  0  0  0  0  0  0  0
  -19.9671   36.9983  -22.0209 C   0  0  0  0  0  0  0  0  0  0  0  0
  -19.8659   37.6730  -23.4021 C   0  0  0  0  0  0  0  0  0  0  0  0
  -18.6299   38.2839  -23.6674 N   0  0  0  0  0  0  0  0  0  0  0  0
  -18.6689   39.5575  -24.3090 C   0  0  0  0  0  0  0  0  0  0  0  0
  -18.2074   40.5679  -23.2952 C   0  0  0  0  0  0  0  0  0  0  0  0
  -18.9931   41.3607  -22.5507 N   0  0  0  0  0  0  0  0  0  0  0  0
  -18.2451   42.1411  -21.7523 C   0  0  0  0  0  0  0  0  0  0  0  0
  -18.5055   43.1115  -20.8115 C   0  0  0  0  0  0  0  0  0  0  0  0
  -17.4954   43.7530  -20.1390 C   0  0  0  0  0  0  0  0  0  0  0  0
  -16.1527   43.4467  -20.3818 C   0  0  0  0  0  0  0  0  0  0  0  0
  -15.0578   44.1487  -19.6467 C   0  0  0  0  0  0  0  0  0  0  0  0
  -15.1292   43.8703  -18.2956 F   0  0  0  0  0  0  0  0  0  0  0  0
  -13.8620   43.7689  -20.2076 F   0  0  0  0  0  0  0  0  0  0  0  0
  -15.2848   45.5135  -19.7738 F   0  0  0  0  0  0  0  0  0  0  0  0
  -15.9031   42.4781  -21.3214 C   0  0  0  0  0  0  0  0  0  0  0  0
  -16.9147   41.8319  -21.9985 C   0  0  0  0  0  0  0  0  0  0  0  0
  -16.9462   40.8651  -22.9490 N   0  0  0  0  0  0  0  0  0  0  0  0
  -17.5906   38.1217  -22.7143 C   0  0  0  0  0  0  0  0  0  0  0  0
  -17.5214   36.7779  -22.0746 C   0  0  0  0  0  0  0  0  0  0  0  0
  1  2  1  0
  2  3  1  0
  3  4  2  0
  4  5  1  0
  5  6  2  0
  6  7  1  0
  7  8  2  0
  8  9  1  0
  9 10  1  0
 10 11  1  0
 11 12  1  0
 12 13  1  0
 13 14  1  0
 14 15  2  0
 15 16  1  0
 16 17  2  0
 17 18  1  0
 18 19  2  0
 19 20  1  0
 20 21  1  0
 20 22  1  0
 20 23  1  0
 19 24  1  0
 24 25  2  0
 25 26  1  0
 12 27  1  0
 27 28  1  0
  8  3  1  0
 28  9  1  0
 26 14  1  0
 25 16  1  0
M  END
$$$$
