
     RDKit          3D

 38 40  0  0  0  0  0  0  0  0999 V2000
  -26.0403   13.4083  -32.3311 C   0  0  0  0  0  0  0  0  0  0  0  0
  -24.6726   13.9712  -32.5237 C   0  0  0  0  0  0  0  0  0  0  0  0
  -23.6071   13.1527  -32.7247 C   0  0  0  0  0  0  0  0  0  0  0  0
  -22.3273   13.6784  -32.9016 C   0  0  0  0  0  0  0  0  0  0  0  0
  -22.0533   15.0148  -32.8874 C   0  0  0  0  0  0  0  0  0  0  0  0
  -20.7830   15.6412  -33.0773 C   0  0  0  0  0  0  0  0  0  0  0  0
  -20.8816   16.9628  -33.0721 O   0  0  0  0  0  0  0  0  0  0  0  0
  -19.4681   15.2434  -33.2725 N   0  0  0  0  0  0  0  0  0  0  0  0
  -19.0319   13.8863  -33.2908 C   0  0  0  0  0  0  0  0  0  0  0  0
  -18.6634   13.3376  -31.9519 C   0  0  0  0  0  0  0  0  0  0  0  0
  -19.6824   13.3084  -30.8837 C   0  0  0  0  0  0  0  0  0  0  0  0
  -18.9900   12.7800  -29.6774 N   0  0  0  0  0  0  0  0  0  0  0  0
  -18.4317   16.3211  -33.4265 C   0  0  0  0  0  0  0  0  0  0  0  0
  -17.2193   16.1228  -32.6774 C   0  0  0  0  0  0  0  0  0  0  0  0
  -16.2532   15.3280  -33.1633 O   0  0  0  0  0  0  0  0  0  0  0  0
  -15.1343   15.0627  -32.6014 C   0  0  0  0  0  0  0  0  0  0  0  0
  -14.1882   14.2225  -33.1858 C   0  0  0  0  0  0  0  0  0  0  0  0
  -13.0088   13.9827  -32.5267 C   0  0  0  0  0  0  0  0  0  0  0  0
  -11.8287   12.9184  -33.2841 Cl  0  0  0  0  0  0  0  0  0  0  0  0
  -12.7026   14.5429  -31.2880 C   0  0  0  0  0  0  0  0  0  0  0  0
  -13.6349   15.3710  -30.7128 C   0  0  0  0  0  0  0  0  0  0  0  0
  -14.8424   15.6189  -31.3818 C   0  0  0  0  0  0  0  0  0  0  0  0
  -15.7865   16.4532  -30.8107 C   0  0  0  0  0  0  0  0  0  0  0  0
  -15.5021   16.9525  -29.6938 O   0  0  0  0  0  0  0  0  0  0  0  0
  -16.9996   16.7166  -31.4647 C   0  0  0  0  0  0  0  0  0  0  0  0
  -17.8877   17.6798  -30.7970 C   0  0  0  0  0  0  0  0  0  0  0  0
  -17.5123   19.0795  -31.0899 C   0  0  0  0  0  0  0  0  0  0  0  0
  -16.7993   19.8130  -30.1285 C   0  0  0  0  0  0  0  0  0  0  0  0
  -16.4447   21.1105  -30.3810 C   0  0  0  0  0  0  0  0  0  0  0  0
  -16.7549   21.7588  -31.5552 C   0  0  0  0  0  0  0  0  0  0  0  0
  -17.4500   21.0690  -32.5110 C   0  0  0  0  0  0  0  0  0  0  0  0
  -17.8076   19.7399  -32.2407 C   0  0  0  0  0  0  0  0  0  0  0  0
  -18.1806   16.6100  -34.9039 C   0  0  0  0  0  0  0  0  0  0  0  0
  -17.1416   17.6677  -35.0931 C   0  0  0  0  0  0  0  0  0  0  0  0
  -17.8469   15.4480  -35.7562 C   0  0  0  0  0  0  0  0  0  0  0  0
  -23.1947   15.8370  -32.6746 C   0  0  0  0  0  0  0  0  0  0  0  0
  -24.4502   15.3140  -32.5017 C   0  0  0  0  0  0  0  0  0  0  0  0
  -19.1291   15.4882  -32.4903 Cl  0  0  0  0  0  0  0  0  0  0  0  0
  1  2  1  0
  2  3  2  0
  3  4  1  0
  4  5  2  0
  5  6  1  0
  6  7  2  0
  6  8  1  0
  8  9  1  0
  9 10  1  0
 10 11  1  0
 11 12  1  0
  8 13  1  0
 13 14  1  0
 14 15  1  0
 15 16  1  0
 16 17  2  0
 17 18  1  0
 18 19  1  0
 18 20  2  0
 20 21  1  0
 21 22  2  0
 22 23  1  0
 23 24  2  0
 23 25  1  0
 25 26  1  0
 26 27  1  0
 27 28  2  0
 28 29  1  0
 29 30  2  0
 30 31  1  0
 31 32  2  0
 13 33  1  0
 33 34  1  0
 33 35  1  0
  5 36  1  0
 36 37  2  0
 37  2  1  0
 25 14  2  0
 32 27  1  0
 22 16  1  0
M  END
$$$$
