
     RDKit          3D

 30 32  0  0  0  0  0  0  0  0999 V2000
  -27.6158   19.1167  -28.2026 Cl  0  0  0  0  0  0  0  0  0  0  0  0
  -31.5440   17.5202  -27.1799 N   0  0  0  0  0  0  0  0  0  0  0  0
  -30.2151   17.9319  -26.9810 C   0  0  0  0  0  0  0  0  0  0  0  0
  -29.5410   17.3918  -26.0727 O   0  0  0  0  0  0  0  0  0  0  0  0
  -29.6323   18.9714  -27.8200 C   0  0  0  0  0  0  0  0  0  0  0  0
  -30.3356   19.5783  -28.8142 C   0  0  0  0  0  0  0  0  0  0  0  0
  -29.7486   20.5175  -29.5428 N   0  0  0  0  0  0  0  0  0  0  0  0
  -28.4833   20.9408  -29.3874 C   0  0  0  0  0  0  0  0  0  0  0  0
  -27.8999   21.9563  -30.2003 N   0  0  0  0  0  0  0  0  0  0  0  0
  -28.6289   22.6198  -31.2618 C   0  0  2  0  0  0  0  0  0  0  0  0
  -27.7189   23.6187  -31.9564 C   0  0  0  0  0  0  0  0  0  0  0  0
  -27.7905   24.9829  -31.3216 C   0  0  0  0  0  0  0  0  0  0  0  0
  -28.0473   24.9303  -29.8361 C   0  0  0  0  0  0  0  0  0  0  0  0
  -29.2444   24.1195  -29.4504 C   0  0  0  0  0  0  0  0  0  0  0  0
  -29.7805   23.4676  -30.7072 C   0  0  2  0  0  0  0  0  0  0  0  0
  -30.9808   22.7236  -30.5016 N   0  0  0  0  0  0  0  0  0  0  0  0
  -27.7835   20.3393  -28.4006 N   0  0  0  0  0  0  0  0  0  0  0  0
  -28.3132   19.3730  -27.6151 C   0  0  0  0  0  0  0  0  0  0  0  0
  -27.5576   18.7530  -26.5817 N   0  0  0  0  0  0  0  0  0  0  0  0
  -26.8143   17.5858  -26.9247 C   0  0  0  0  0  0  0  0  0  0  0  0
  -26.8175   17.0619  -28.2016 C   0  0  0  0  0  0  0  0  0  0  0  0
  -26.1025   15.9344  -28.5441 C   0  0  0  0  0  0  0  0  0  0  0  0
  -25.3687   15.3300  -27.5596 C   0  0  0  0  0  0  0  0  0  0  0  0
  -25.3371   15.8168  -26.2778 C   0  0  0  0  0  0  0  0  0  0  0  0
  -24.5644   15.1714  -25.2631 N   0  0  0  0  0  0  0  0  0  0  0  0
  -23.4831   15.6280  -24.6672 N   0  0  0  0  0  0  0  0  0  0  0  0
  -23.0352   14.7392  -23.7670 C   0  0  0  0  0  0  0  0  0  0  0  0
  -23.9094   13.6604  -23.8186 C   0  0  0  0  0  0  0  0  0  0  0  0
  -24.8289   13.9803  -24.7545 N   0  0  0  0  0  0  0  0  0  0  0  0
  -26.0543   16.9443  -25.9427 C   0  0  0  0  0  0  0  0  0  0  0  0
  2  3  1  0
  3  4  2  0
  3  5  1  0
  5  6  2  0
  6  7  1  0
  7  8  2  0
  8  9  1  0
 10  9  1  1
 10 11  1  0
 11 12  1  0
 12 13  1  0
 13 14  1  0
 14 15  1  0
 15 16  1  1
  8 17  1  0
 17 18  2  0
 18 19  1  0
 19 20  1  0
 20 21  2  0
 21 22  1  0
 22 23  2  0
 23 24  1  0
 24 25  1  0
 25 26  1  0
 26 27  2  0
 27 28  1  0
 28 29  2  0
 24 30  2  0
 18  5  1  0
 30 20  1  0
 15 10  1  0
 29 25  1  0
M  END
$$$$
