
     RDKit          3D

 30 32  0  0  0  0  0  0  0  0999 V2000
  -19.1142   43.7807  -23.4232 C   0  0  0  0  0  0  0  0  0  0  0  0
  -18.4443   43.7083  -22.2761 O   0  0  0  0  0  0  0  0  0  0  0  0
  -17.8578   42.9491  -21.3716 C   0  0  0  0  0  0  0  0  0  0  0  0
  -17.9102   41.5970  -21.1899 C   0  0  0  0  0  0  0  0  0  0  0  0
  -17.3057   40.8788  -20.1925 C   0  0  0  0  0  0  0  0  0  0  0  0
  -17.5234   39.4945  -20.0784 N   0  0  0  0  0  0  0  0  0  0  0  0
  -18.1826   38.7291  -21.0090 C   0  0  0  0  0  0  0  0  0  0  0  0
  -18.5654   39.2211  -22.3200 C   0  0  0  0  0  0  0  0  0  0  0  0
  -19.0821   38.2905  -23.0126 N   0  0  0  0  0  0  0  0  0  0  0  0
  -19.4250   37.1107  -23.0827 C   0  0  0  0  0  0  0  0  0  0  0  0
  -20.0023   36.1925  -23.6989 C   0  0  0  0  0  0  0  0  0  0  0  0
  -20.6435   35.1666  -24.4141 N   0  0  0  0  0  0  0  0  0  0  0  0
  -18.9958   36.5204  -21.5786 C   0  0  0  0  0  0  0  0  0  0  0  0
  -19.2486   35.2304  -21.4075 O   0  0  0  0  0  0  0  0  0  0  0  0
  -19.3774   34.3556  -22.5390 C   0  0  2  0  0  0  0  0  0  0  0  0
  -20.5231   33.3593  -22.1130 C   0  0  0  0  0  0  0  0  0  0  0  0
  -18.1789   33.6261  -22.9298 C   0  0  0  0  0  0  0  0  0  0  0  0
  -17.5024   32.9094  -21.9020 N   0  0  0  0  0  0  0  0  0  0  0  0
  -16.6202   33.6236  -21.0640 C   0  0  0  0  0  0  0  0  0  0  0  0
  -17.9692   31.6465  -21.4998 C   0  0  0  0  0  0  0  0  0  0  0  0
  -18.4881   37.4498  -20.9145 N   0  0  0  0  0  0  0  0  0  0  0  0
  -16.5594   41.5685  -19.2796 N   0  0  0  0  0  0  0  0  0  0  0  0
  -16.4449   42.8959  -19.3933 C   0  0  0  0  0  0  0  0  0  0  0  0
  -17.0648   43.6019  -20.3901 C   0  0  0  0  0  0  0  0  0  0  0  0
  -17.0139   45.0622  -20.4681 C   0  0  0  0  0  0  0  0  0  0  0  0
  -17.9226   45.9877  -20.9124 C   0  0  0  0  0  0  0  0  0  0  0  0
  -17.4176   47.1834  -20.7397 N   0  0  0  0  0  0  0  0  0  0  0  0
  -16.2020   47.1302  -20.1967 N   0  0  0  0  0  0  0  0  0  0  0  0
  -15.3524   48.2648  -19.8478 C   0  0  0  0  0  0  0  0  0  0  0  0
  -15.9246   45.8077  -20.0194 C   0  0  0  0  0  0  0  0  0  0  0  0
  1  2  1  0
  2  3  1  0
  3  4  2  0
  4  5  1  0
  5  6  1  0
  6  7  1  0
  7  8  2  0
  8  9  1  0
  9 10  2  0
 10 11  1  0
 11 12  3  0
 10 13  1  0
 13 14  1  0
 14 15  1  0
 15 16  1  1
 15 17  1  0
 17 18  1  0
 18 19  1  0
 18 20  1  0
 13 21  2  0
  5 22  2  0
 22 23  1  0
 23 24  2  0
 24 25  1  0
 25 26  1  0
 26 27  2  0
 27 28  1  0
 28 29  1  0
 28 30  1  0
 24  3  1  0
 30 25  2  0
 21  7  1  0
M  END
$$$$
