
     RDKit          3D

 45 51  0  0  0  0  0  0  0  0999 V2000
  -27.5292    9.5694  -25.0384 C   0  0  0  0  0  0  0  0  0  0  0  0
  -27.7214    9.7036  -26.4477 N   0  0  0  0  0  0  0  0  0  0  0  0
  -28.5574   10.8067  -26.8406 C   0  0  0  0  0  0  0  0  0  0  0  0
  -28.0384   11.5068  -28.0804 C   0  0  0  0  0  0  0  0  0  0  0  0
  -26.6548   11.8809  -27.9311 N   0  0  0  0  0  0  0  0  0  0  0  0
  -26.1224   13.1571  -28.2293 C   0  0  0  0  0  0  0  0  0  0  0  0
  -26.8363   14.3114  -28.3877 C   0  0  0  0  0  0  0  0  0  0  0  0
  -26.2046   15.5260  -28.6885 C   0  0  0  0  0  0  0  0  0  0  0  0
  -24.8416   15.5621  -28.8287 C   0  0  0  0  0  0  0  0  0  0  0  0
  -24.0827   16.7150  -29.1466 N   0  0  0  0  0  0  0  0  0  0  0  0
  -24.7662   17.9677  -29.1971 C   0  0  0  0  0  0  0  0  0  0  0  0
  -25.7399   18.2270  -28.2487 C   0  0  0  0  0  0  0  0  0  0  0  0
  -26.3926   19.4269  -28.2968 C   0  0  0  0  0  0  0  0  0  0  0  0
  -27.3958   19.8324  -27.3363 C   0  0  0  0  0  0  0  0  0  0  0  0
  -27.3905   21.1478  -26.8582 C   0  0  0  0  0  0  0  0  0  0  0  0
  -28.3550   21.5843  -25.9598 C   0  0  0  0  0  0  0  0  0  0  0  0
  -29.3350   20.7080  -25.5308 C   0  0  0  0  0  0  0  0  0  0  0  0
  -29.3538   19.4088  -25.9920 C   0  0  0  0  0  0  0  0  0  0  0  0
  -30.3313   18.4773  -25.5706 N   0  0  0  0  0  0  0  0  0  0  0  0
  -30.4518   18.0428  -24.3094 C   0  0  0  0  0  0  0  0  0  0  0  0
  -31.3985   17.1484  -23.8698 C   0  0  0  0  0  0  0  0  0  0  0  0
  -32.2947   16.6543  -24.7805 C   0  0  0  0  0  0  0  0  0  0  0  0
  -33.2795   15.7443  -24.3877 C   0  0  0  0  0  0  0  0  0  0  0  0
  -34.1612   15.2754  -25.3407 C   0  0  0  0  0  0  0  0  0  0  0  0
  -35.2201   14.3166  -24.9444 C   0  0  0  0  0  0  0  0  0  0  0  0
  -35.3761   13.0085  -25.6317 C   0  0  0  0  0  0  0  0  0  0  0  0
  -34.6324   13.0517  -24.2946 C   0  0  0  0  0  0  0  0  0  0  0  0
  -34.0760   15.6911  -26.6501 C   0  0  0  0  0  0  0  0  0  0  0  0
  -33.1103   16.5859  -27.0437 C   0  0  0  0  0  0  0  0  0  0  0  0
  -32.9823   17.0295  -28.3243 F   0  0  0  0  0  0  0  0  0  0  0  0
  -32.2140   17.0678  -26.0907 C   0  0  0  0  0  0  0  0  0  0  0  0
  -31.2346   17.9709  -26.4596 C   0  0  0  0  0  0  0  0  0  0  0  0
  -31.1677   18.3428  -27.6534 O   0  0  0  0  0  0  0  0  0  0  0  0
  -28.3687   18.9861  -26.9004 C   0  0  0  0  0  0  0  0  0  0  0  0
  -28.4167   17.5913  -27.3288 C   0  0  0  0  0  0  0  0  0  0  0  0
  -28.0755   16.6438  -26.3937 O   0  0  0  0  0  0  0  0  0  0  0  0
  -26.0453   20.3227  -29.2930 C   0  0  0  0  0  0  0  0  0  0  0  0
  -25.0963   20.0667  -30.2169 N   0  0  0  0  0  0  0  0  0  0  0  0
  -24.7843   21.0524  -31.2356 C   0  0  0  0  0  0  0  0  0  0  0  0
  -24.4425   18.8745  -30.1753 C   0  0  0  0  0  0  0  0  0  0  0  0
  -23.5610   18.6720  -31.0570 O   0  0  0  0  0  0  0  0  0  0  0  0
  -24.1519   14.4227  -28.6711 N   0  0  0  0  0  0  0  0  0  0  0  0
  -24.7292   13.2564  -28.3850 C   0  0  0  0  0  0  0  0  0  0  0  0
  -25.7641   10.8414  -27.4313 C   0  0  0  0  0  0  0  0  0  0  0  0
  -26.5317    9.5751  -27.2304 C   0  0  0  0  0  0  0  0  0  0  0  0
  1  2  1  0
  2  3  1  0
  3  4  1  0
  4  5  1  0
  5  6  1  0
  6  7  2  0
  7  8  1  0
  8  9  2  0
  9 10  1  0
 10 11  1  0
 11 12  2  0
 12 13  1  0
 13 14  1  0
 14 15  2  0
 15 16  1  0
 16 17  2  0
 17 18  1  0
 18 19  1  0
 19 20  1  0
 20 21  2  0
 21 22  1  0
 22 23  2  0
 23 24  1  0
 24 25  1  0
 25 26  1  0
 26 27  1  0
 24 28  2  0
 28 29  1  0
 29 30  1  0
 29 31  2  0
 31 32  1  0
 32 33  2  0
 18 34  2  0
 34 35  1  0
 35 36  1  0
 13 37  2  0
 37 38  1  0
 38 39  1  0
 38 40  1  0
 40 41  2  0
  9 42  1  0
 42 43  2  0
  5 44  1  0
 44 45  1  0
 45  2  1  0
 43  6  1  0
 40 11  1  0
 34 14  1  0
 32 19  1  0
 31 22  1  0
 27 25  1  0
M  END
$$$$
