
     RDKit          3D

 42 46  0  0  0  0  0  0  0  0999 V2000
  -14.3869   14.5718  -47.0294 C   0  0  0  0  0  0  0  0  0  0  0  0
  -14.9054   15.8601  -47.1856 O   0  0  0  0  0  0  0  0  0  0  0  0
  -14.8261   16.8095  -46.1727 C   0  0  0  0  0  0  0  0  0  0  0  0
  -15.7582   16.7992  -45.1278 C   0  0  0  0  0  0  0  0  0  0  0  0
  -15.6418   17.7571  -44.1476 C   0  0  0  0  0  0  0  0  0  0  0  0
  -14.6596   18.7160  -44.1487 C   0  0  0  0  0  0  0  0  0  0  0  0
  -14.6002   19.6815  -43.0814 N   0  0  0  0  0  0  0  0  0  0  0  0
  -13.8349   19.4340  -41.9189 C   0  0  0  0  0  0  0  0  0  0  0  0
  -14.0142   20.1215  -40.8926 O   0  0  0  0  0  0  0  0  0  0  0  0
  -12.8668   18.3989  -41.9317 N   0  0  0  0  0  0  0  0  0  0  0  0
  -12.0057   18.1221  -40.8494 C   0  0  0  0  0  0  0  0  0  0  0  0
  -12.4384   17.4982  -39.6954 C   0  0  0  0  0  0  0  0  0  0  0  0
  -13.8753   17.0964  -39.5776 C   0  0  0  0  0  0  0  0  0  0  0  0
  -11.5607   17.2445  -38.6566 C   0  0  0  0  0  0  0  0  0  0  0  0
  -10.2322   17.6040  -38.7353 C   0  0  0  0  0  0  0  0  0  0  0  0
   -9.8128   18.2350  -39.9120 C   0  0  0  0  0  0  0  0  0  0  0  0
  -10.6804   18.4893  -40.9491 C   0  0  0  0  0  0  0  0  0  0  0  0
  -10.2181   19.1537  -42.1864 C   0  0  0  0  0  0  0  0  0  0  0  0
  -15.3149   20.8996  -43.1879 C   0  0  0  0  0  0  0  0  0  0  0  0
  -16.6819   20.8527  -43.3190 C   0  0  0  0  0  0  0  0  0  0  0  0
  -17.4742   22.0020  -43.4550 C   0  0  0  0  0  0  0  0  0  0  0  0
  -18.8834   21.8971  -43.5529 N   0  0  0  0  0  0  0  0  0  0  0  0
  -19.6773   21.5264  -42.4441 C   0  0  0  0  0  0  0  0  0  0  0  0
  -20.7760   22.2249  -42.0047 C   0  0  0  0  0  0  0  0  0  0  0  0
  -21.5256   21.8469  -40.9115 C   0  0  0  0  0  0  0  0  0  0  0  0
  -21.1984   20.7085  -40.1789 C   0  0  0  0  0  0  0  0  0  0  0  0
  -21.9488   20.3002  -39.0600 N   0  0  0  0  0  0  0  0  0  0  0  0
  -22.5542   21.2783  -38.1645 C   0  0  0  0  0  0  0  0  0  0  0  0
  -22.7650   20.6211  -36.8348 C   0  0  0  0  0  0  0  0  0  0  0  0
  -23.7202   19.5616  -36.9578 N   0  0  0  0  0  0  0  0  0  0  0  0
  -25.0948   19.9941  -36.9524 C   0  0  0  0  0  0  0  0  0  0  0  0
  -23.4163   18.6226  -37.9854 C   0  0  0  0  0  0  0  0  0  0  0  0
  -22.1459   18.9254  -38.7559 C   0  0  0  0  0  0  0  0  0  0  0  0
  -20.1082   19.9983  -40.5982 C   0  0  0  0  0  0  0  0  0  0  0  0
  -19.3487   20.3830  -41.7077 C   0  0  0  0  0  0  0  0  0  0  0  0
  -16.7930   23.1538  -43.4486 N   0  0  0  0  0  0  0  0  0  0  0  0
  -15.4673   23.2459  -43.3236 C   0  0  0  0  0  0  0  0  0  0  0  0
  -14.7289   22.1067  -43.1924 N   0  0  0  0  0  0  0  0  0  0  0  0
  -13.7493   18.7240  -45.1719 C   0  0  0  0  0  0  0  0  0  0  0  0
  -12.7291   19.6550  -45.2500 O   0  0  0  0  0  0  0  0  0  0  0  0
  -11.5681   19.4004  -45.9893 C   0  0  0  0  0  0  0  0  0  0  0  0
  -13.8453   17.7660  -46.1743 C   0  0  0  0  0  0  0  0  0  0  0  0
  1  2  1  0
  2  3  1  0
  3  4  2  0
  4  5  1  0
  5  6  2  0
  6  7  1  0
  7  8  1  0
  8  9  2  0
  8 10  1  0
 10 11  1  0
 11 12  2  0
 12 13  1  0
 12 14  1  0
 14 15  2  0
 15 16  1  0
 16 17  2  0
 17 18  1  0
  7 19  1  0
 19 20  2  0
 20 21  1  0
 21 22  1  0
 22 23  1  0
 23 24  2  0
 24 25  1  0
 25 26  2  0
 26 27  1  0
 27 28  1  0
 28 29  1  0
 29 30  1  0
 30 31  1  0
 30 32  1  0
 32 33  1  0
 26 34  1  0
 34 35  2  0
 21 36  2  0
 36 37  1  0
 37 38  2  0
  6 39  1  0
 39 40  1  0
 40 41  1  0
 39 42  2  0
 42  3  1  0
 17 11  1  0
 38 19  1  0
 35 23  1  0
 33 27  1  0
M  END
$$$$
