
     RDKit          3D

 12 13  0  0  0  0  0  0  0  0999 V2000
  -20.6781   38.7781  -22.9212 O   0  0  0  0  0  0  0  0  0  0  0  0
  -19.5911   38.2696  -22.4615 C   0  0  0  0  0  0  0  0  0  0  0  0
  -18.6311   39.0758  -21.8487 N   0  0  0  0  0  0  0  0  0  0  0  0
  -17.3486   38.0247  -21.3807 S   0  0  0  0  0  6  0  0  0  0  0  0
  -16.0622   38.3495  -22.0738 O   0  0  0  0  0  0  0  0  0  0  0  0
  -17.1937   37.9832  -19.8828 O   0  0  0  0  0  0  0  0  0  0  0  0
  -18.0563   36.5325  -21.9805 C   0  0  0  0  0  0  0  0  0  0  0  0
  -17.5577   35.2405  -21.9442 C   0  0  0  0  0  0  0  0  0  0  0  0
  -18.2921   34.2058  -22.4820 C   0  0  0  0  0  0  0  0  0  0  0  0
  -19.5101   34.5235  -23.0386 C   0  0  0  0  0  0  0  0  0  0  0  0
  -19.9952   35.8163  -23.0680 C   0  0  0  0  0  0  0  0  0  0  0  0
  -19.2537   36.8757  -22.5226 C   0  0  0  0  0  0  0  0  0  0  0  0
  1  2  2  0
  2  3  1  0
  3  4  1  0
  4  5  2  0
  4  6  2  0
  4  7  1  0
  7  8  2  0
  8  9  1  0
  9 10  2  0
 10 11  1  0
 11 12  2  0
 12  2  1  0
 12  7  1  0
M  END
$$$$
