
     RDKit          3D

 29 31  0  0  0  0  0  0  0  0999 V2000
  -13.0052   45.1680  -20.5635 C   0  0  0  0  0  0  0  0  0  0  0  0
  -14.0355   44.7907  -19.6751 O   0  0  0  0  0  0  0  0  0  0  0  0
  -15.0129   43.8874  -20.0572 C   0  0  0  0  0  0  0  0  0  0  0  0
  -15.8956   43.4155  -19.1075 C   0  0  0  0  0  0  0  0  0  0  0  0
  -16.8578   42.5188  -19.5120 C   0  0  0  0  0  0  0  0  0  0  0  0
  -16.9023   42.1295  -20.8408 C   0  0  0  0  0  0  0  0  0  0  0  0
  -17.9686   41.1606  -21.2007 C   0  0  0  0  0  0  0  0  0  0  0  0
  -17.5412   39.7936  -20.9923 N   0  0  0  0  0  0  0  0  0  0  0  0
  -18.0519   38.7897  -21.8573 C   0  0  0  0  0  0  0  0  0  0  0  0
  -18.7835   39.0474  -22.9372 N   0  0  0  0  0  0  0  0  0  0  0  0
  -19.2794   38.1136  -23.7773 C   0  0  0  0  0  0  0  0  0  0  0  0
  -20.0588   38.4786  -24.9208 N   0  0  0  0  0  0  0  0  0  0  0  0
  -20.5156   39.8273  -25.0535 C   0  0  0  0  0  0  0  0  0  0  0  0
  -19.4645   40.7298  -25.6717 C   0  0  0  0  0  0  0  0  0  0  0  0
  -19.8925   42.0530  -25.7288 O   0  0  0  0  0  0  0  0  0  0  0  0
  -20.3448   37.4519  -25.9042 C   0  0  0  0  0  0  0  0  0  0  0  0
  -21.5738   36.6495  -25.5165 C   0  0  0  0  0  0  0  0  0  0  0  0
  -22.1814   36.0909  -26.6386 O   0  0  0  0  0  0  0  0  0  0  0  0
  -19.0024   36.8287  -23.4840 N   0  0  0  0  0  0  0  0  0  0  0  0
  -18.2677   36.4588  -22.4103 C   0  0  0  0  0  0  0  0  0  0  0  0
  -17.7804   37.4454  -21.5785 C   0  0  0  0  0  0  0  0  0  0  0  0
  -17.0821   36.8663  -20.5808 N   0  0  0  0  0  0  0  0  0  0  0  0
  -17.1191   35.5380  -20.7663 C   0  0  0  0  0  0  0  0  0  0  0  0
  -17.8439   35.2983  -21.8836 N   0  0  0  0  0  0  0  0  0  0  0  0
  -18.1314   33.9945  -22.4409 C   0  0  0  0  0  0  0  0  0  0  0  0
  -19.6028   33.7410  -22.3816 C   0  0  0  0  0  0  0  0  0  0  0  0
  -17.5852   33.9378  -23.8531 C   0  0  0  0  0  0  0  0  0  0  0  0
  -16.0417   42.5839  -21.7876 C   0  0  0  0  0  0  0  0  0  0  0  0
  -15.0676   43.4925  -21.3755 C   0  0  0  0  0  0  0  0  0  0  0  0
  1  2  1  0
  2  3  1  0
  3  4  2  0
  4  5  1  0
  5  6  2  0
  6  7  1  0
  7  8  1  0
  8  9  1  0
  9 10  2  0
 10 11  1  0
 11 12  1  0
 12 13  1  0
 13 14  1  0
 14 15  1  0
 12 16  1  0
 16 17  1  0
 17 18  1  0
 11 19  2  0
 19 20  1  0
 20 21  2  0
 21 22  1  0
 22 23  2  0
 23 24  1  0
 24 25  1  0
 25 26  1  0
 25 27  1  0
  6 28  1  0
 28 29  2  0
 29  3  1  0
 21  9  1  0
 24 20  1  0
M  END
$$$$
