
     RDKit          3D

 24 27  0  0  0  0  0  0  0  0999 V2000
  -14.1688   -3.2427  -31.2630 C   0  0  0  0  0  0  0  0  0  0  0  0
  -13.5901   -1.7652  -32.1445 S   0  0  0  0  0  0  0  0  0  0  0  0
  -14.8994   -0.5505  -32.2127 C   0  0  0  0  0  0  0  0  0  0  0  0
  -14.6508    0.7992  -31.9861 C   0  0  0  0  0  0  0  0  0  0  0  0
  -15.6374    1.7376  -32.0349 C   0  0  0  0  0  0  0  0  0  0  0  0
  -16.9328    1.3211  -32.3218 C   0  0  0  0  0  0  0  0  0  0  0  0
  -17.2352   -0.0028  -32.5542 C   0  0  0  0  0  0  0  0  0  0  0  0
  -16.1857   -0.8932  -32.4879 C   0  0  0  0  0  0  0  0  0  0  0  0
  -18.5536   -0.6538  -32.8682 C   0  0  0  0  0  0  0  0  0  0  0  0
  -18.9193   -0.5313  -34.2203 N   0  0  0  0  0  0  0  0  0  0  0  0
  -17.9396   -0.8454  -35.2059 C   0  0  0  0  0  0  0  0  0  0  0  0
  -18.5197   -1.7006  -36.3330 C   0  0  0  0  0  0  0  0  0  0  0  0
  -19.5353   -0.9200  -36.9672 N   0  0  0  0  0  0  0  0  0  0  0  0
  -20.1964   -1.5570  -38.0633 C   0  0  0  0  0  0  0  0  0  0  0  0
  -20.3877   -0.2198  -36.0649 C   0  0  0  0  0  0  0  0  0  0  0  0
  -20.2622   -0.7068  -34.6107 C   0  0  0  0  0  0  0  0  0  0  0  0
  -19.5692   -0.4048  -31.8225 C   0  0  0  0  0  0  0  0  0  0  0  0
  -20.0960    0.9100  -31.6097 C   0  0  0  0  0  0  0  0  0  0  0  0
  -21.4092    0.8080  -31.1255 C   0  0  0  0  0  0  0  0  0  0  0  0
  -22.1648    1.9118  -30.8255 C   0  0  0  0  0  0  0  0  0  0  0  0
  -21.6396    3.1743  -30.9966 C   0  0  0  0  0  0  0  0  0  0  0  0
  -20.3689    3.3043  -31.4646 C   0  0  0  0  0  0  0  0  0  0  0  0
  -19.6236    2.1778  -31.7612 C   0  0  0  0  0  0  0  0  0  0  0  0
  -18.0329    2.6997  -32.3449 S   0  0  0  0  0  0  0  0  0  0  0  0
  1  2  1  0
  2  3  1  0
  3  4  2  0
  4  5  1  0
  5  6  2  0
  6  7  1  0
  7  8  2  0
  7  9  1  0
  9 10  1  0
 10 11  1  0
 11 12  1  0
 12 13  1  0
 13 14  1  0
 13 15  1  0
 15 16  1  0
  9 17  1  0
 17 18  1  0
 18 19  2  0
 19 20  1  0
 20 21  2  0
 21 22  1  0
 22 23  2  0
 23 24  1  0
  8  3  1  0
 16 10  1  0
 23 18  1  0
 24  6  1  0
M  END
$$$$
