
     RDKit          3D

 25 26  0  0  0  0  0  0  0  0999 V2000
  -44.4051   11.8863  -38.3709 C   0  0  0  0  0  0  0  0  0  0  0  0
  -43.7580   11.7768  -39.6004 O   0  0  0  0  0  0  0  0  0  0  0  0
  -44.3450   11.4030  -40.7929 C   0  0  0  0  0  0  0  0  0  0  0  0
  -45.1850   12.1893  -41.2919 O   0  0  0  0  0  0  0  0  0  0  0  0
  -44.0435   10.1633  -41.4897 C   0  0  0  0  0  0  0  0  0  0  0  0
  -44.8366    9.8513  -42.4950 C   0  0  0  0  0  0  0  0  0  0  0  0
  -46.0068   10.7144  -42.9209 C   0  0  0  0  0  0  0  0  0  0  0  0
  -44.5615    8.6729  -43.2311 N   0  0  0  0  0  0  0  0  0  0  0  0
  -43.4741    7.8505  -42.9069 C   0  0  0  0  0  0  0  0  0  0  0  0
  -43.2327    6.6166  -43.7245 C   0  0  0  0  0  0  0  0  0  0  0  0
  -42.6811    8.1318  -41.9211 C   0  0  0  0  0  0  0  0  0  0  0  0
  -41.5350    7.2791  -41.5776 C   0  0  0  0  0  0  0  0  0  0  0  0
  -41.3462    6.2425  -42.2464 O   0  0  0  0  0  0  0  0  0  0  0  0
  -40.6665    7.5856  -40.5467 O   0  0  0  0  0  0  0  0  0  0  0  0
  -39.5381    6.8149  -40.2283 C   0  0  0  0  0  0  0  0  0  0  0  0
  -42.8977    9.3134  -41.0326 C   0  0  0  0  0  0  0  0  0  0  0  0
  -41.6290   10.0577  -40.9873 C   0  0  0  0  0  0  0  0  0  0  0  0
  -40.8580   10.0578  -39.8090 C   0  0  0  0  0  0  0  0  0  0  0  0
  -39.6448   10.7015  -39.7381 C   0  0  0  0  0  0  0  0  0  0  0  0
  -39.1437   11.3716  -40.8293 C   0  0  0  0  0  0  0  0  0  0  0  0
  -39.8745   11.3841  -41.9788 C   0  0  0  0  0  0  0  0  0  0  0  0
  -41.1181   10.7271  -42.0559 C   0  0  0  0  0  0  0  0  0  0  0  0
  -41.7728   10.8458  -43.2960 N   0  0  0  0  0  4  0  0  0  0  0  0
  -42.1808   11.8903  -43.7650 O   0  0  0  0  0  0  0  0  0  0  0  0
  -41.9468    9.7045  -44.0589 O   0  0  0  0  0  1  0  0  0  0  0  0
  1  2  1  0
  2  3  1  0
  3  4  2  0
  3  5  1  0
  5  6  2  0
  6  7  1  0
  6  8  1  0
  8  9  1  0
  9 10  1  0
  9 11  2  0
 11 12  1  0
 12 13  2  0
 12 14  1  0
 14 15  1  0
 11 16  1  0
 16 17  1  0
 17 18  2  0
 18 19  1  0
 19 20  2  0
 20 21  1  0
 21 22  2  0
 22 23  1  0
 23 24  2  0
 23 25  1  0
 16  5  1  0
 22 17  1  0
M  CHG  2  23   1  25  -1
M  END
$$$$
