
     RDKit          3D

 36 39  0  0  0  0  0  0  0  0999 V2000
    0.5899   13.5143  -23.0578 C   0  0  0  0  0  0  0  0  0  0  0  0
   -0.3013   14.7162  -22.7587 C   0  0  0  0  0  0  0  0  0  0  0  0
   -1.4642   14.6907  -23.7289 C   0  0  0  0  0  0  0  0  0  0  0  0
   -0.8887   14.5556  -21.3871 C   0  0  0  0  0  0  0  0  0  0  0  0
   -2.0988   14.1437  -21.0858 O   0  0  0  0  0  0  0  0  0  0  0  0
   -2.2810   14.1176  -19.7984 N   0  0  0  0  0  0  0  0  0  0  0  0
   -1.1659   14.5243  -19.1664 C   0  0  0  0  0  0  0  0  0  0  0  0
   -0.9334   14.6496  -17.7334 C   0  0  0  0  0  0  0  0  0  0  0  0
   -1.4139   15.7366  -17.0280 C   0  0  0  0  0  0  0  0  0  0  0  0
   -2.3157   16.9786  -17.8688 Cl  0  0  0  0  0  0  0  0  0  0  0  0
   -1.2126   15.8881  -15.6768 C   0  0  0  0  0  0  0  0  0  0  0  0
   -0.5176   14.9485  -14.9789 C   0  0  0  0  0  0  0  0  0  0  0  0
   -0.0234   13.8511  -15.6474 C   0  0  0  0  0  0  0  0  0  0  0  0
   -0.2288   13.7046  -17.0058 C   0  0  0  0  0  0  0  0  0  0  0  0
    0.4114   12.2932  -17.8545 Cl  0  0  0  0  0  0  0  0  0  0  0  0
   -0.2628   14.8091  -20.1837 C   0  0  0  0  0  0  0  0  0  0  0  0
    1.1280   15.3236  -19.9517 C   0  0  0  0  0  0  0  0  0  0  0  0
    1.2935   16.5770  -19.6778 O   0  0  0  0  0  0  0  0  0  0  0  0
    1.6679   17.7753  -19.3868 C   0  0  0  0  0  0  0  0  0  0  0  0
    2.3493   18.1295  -18.2200 C   0  0  0  0  0  0  0  0  0  0  0  0
    2.7082   19.4423  -17.9976 C   0  0  0  0  0  0  0  0  0  0  0  0
    2.4218   20.4422  -18.8870 C   0  0  0  0  0  0  0  0  0  0  0  0
    2.8121   21.8234  -18.6468 C   0  0  0  0  0  0  0  0  0  0  0  0
    4.0181   22.3064  -18.7144 C   0  0  0  0  0  0  0  0  0  0  0  0
    4.3969   23.6761  -18.3501 C   0  0  0  0  0  0  0  0  0  0  0  0
    3.4798   24.6662  -18.1047 C   0  0  0  0  0  0  0  0  0  0  0  0
    3.8983   25.9455  -17.7690 C   0  0  0  0  0  0  0  0  0  0  0  0
    5.2364   26.2282  -17.6804 C   0  0  0  0  0  0  0  0  0  0  0  0
    6.1946   25.2570  -17.9201 C   0  0  0  0  0  0  0  0  0  0  0  0
    7.6201   25.5748  -17.8216 C   0  0  0  0  0  0  0  0  0  0  0  0
    8.3117   24.9943  -16.9553 O   0  0  0  0  0  0  0  0  0  0  0  0
    8.2077   26.4907  -18.6558 O   0  0  0  0  0  0  0  0  0  0  0  0
    5.7556   24.0039  -18.2493 C   0  0  0  0  0  0  0  0  0  0  0  0
    1.7493   20.1230  -20.0485 C   0  0  0  0  0  0  0  0  0  0  0  0
    1.3881   21.4190  -21.1825 Cl  0  0  0  0  0  0  0  0  0  0  0  0
    1.3842   18.8252  -20.2892 C   0  0  0  0  0  0  0  0  0  0  0  0
  1  2  1  0
  2  3  1  0
  2  4  1  0
  4  5  1  0
  5  6  1  0
  6  7  2  0
  7  8  1  0
  8  9  2  0
  9 10  1  0
  9 11  1  0
 11 12  2  0
 12 13  1  0
 13 14  2  0
 14 15  1  0
  7 16  1  0
 16 17  1  0
 17 18  1  0
 18 19  1  0
 19 20  2  0
 20 21  1  0
 21 22  2  0
 22 23  1  0
 23 24  2  0
 24 25  1  0
 25 26  2  0
 26 27  1  0
 27 28  2  0
 28 29  1  0
 29 30  1  0
 30 31  2  0
 30 32  1  0
 29 33  2  0
 22 34  1  0
 34 35  1  0
 34 36  2  0
 16  4  2  0
 36 19  1  0
 14  8  1  0
 33 25  1  0
M  END
$$$$
