
     RDKit          3D

 16 17  0  0  0  0  0  0  0  0999 V2000
  -16.0879   22.5882  -13.1394 O   0  0  0  0  0  0  0  0  0  0  0  0
  -16.1861   22.1100  -11.9866 C   0  0  0  0  0  0  0  0  0  0  0  0
  -15.3561   22.6780  -10.9822 N   0  0  0  0  0  0  0  0  0  0  0  0
  -14.3813   23.6950  -11.2522 C   0  0  0  0  0  0  0  0  0  0  0  0
  -14.4723   24.8772  -10.3317 C   0  0  0  0  0  0  0  0  0  0  0  0
  -13.5059   25.9270  -10.8430 C   0  0  0  0  0  0  0  0  0  0  0  0
  -12.5631   25.3984  -11.8746 C   0  0  0  0  0  0  0  0  0  0  0  0
  -11.9926   24.0564  -11.5633 C   0  0  0  0  0  0  0  0  0  0  0  0
  -13.0061   23.0808  -11.0673 C   0  0  0  0  0  0  0  0  0  0  0  0
  -17.0825   21.0633  -11.7314 N   0  0  0  0  0  0  0  0  0  0  0  0
  -17.5113   20.1170  -12.7547 C   0  0  0  0  0  0  0  0  0  0  0  0
  -18.7846   20.6634  -13.3753 C   0  0  0  0  0  0  0  0  0  0  0  0
  -19.9314   20.3998  -12.4023 C   0  0  0  0  0  0  0  0  0  0  0  0
  -20.3277   18.9486  -12.5524 C   0  0  0  0  0  0  0  0  0  0  0  0
  -19.0589   18.1490  -12.7064 C   0  0  0  0  0  0  0  0  0  0  0  0
  -17.8791   18.8292  -12.0441 C   0  0  0  0  0  0  0  0  0  0  0  0
  1  2  2  0
  2  3  1  0
  3  4  1  0
  4  5  1  0
  5  6  1  0
  6  7  1  0
  7  8  1  0
  8  9  1  0
  2 10  1  0
 10 11  1  0
 11 12  1  0
 12 13  1  0
 13 14  1  0
 14 15  1  0
 15 16  1  0
  9  4  1  0
 16 11  1  0
M  END
$$$$
