
     RDKit          3D

 35 38  0  0  0  0  0  0  0  0999 V2000
  -18.7095   22.2831  -31.9538 C   0  0  0  0  0  0  0  0  0  0  0  0
  -19.8660   21.3764  -32.1651 C   0  0  0  0  0  0  0  0  0  0  0  0
  -21.1581   21.6876  -32.3585 N   0  0  0  0  0  0  0  0  0  0  0  0
  -21.8682   20.6284  -32.5046 O   0  0  0  0  0  0  0  0  0  0  0  0
  -21.1080   19.5237  -32.4203 C   0  0  0  0  0  0  0  0  0  0  0  0
  -21.5683   18.1624  -32.5364 C   0  0  0  0  0  0  0  0  0  0  0  0
  -20.9877   17.2853  -33.3947 C   0  0  0  0  0  0  0  0  0  0  0  0
  -21.4990   15.9847  -33.4616 C   0  0  0  0  0  0  0  0  0  0  0  0
  -22.5587   15.5711  -32.6939 C   0  0  0  0  0  0  0  0  0  0  0  0
  -23.0589   14.2061  -32.8019 C   0  0  0  0  0  0  0  0  0  0  0  0
  -22.1685   13.1462  -32.8593 C   0  0  0  0  0  0  0  0  0  0  0  0
  -22.6182   11.8308  -32.9624 C   0  0  0  0  0  0  0  0  0  0  0  0
  -23.9615   11.5430  -33.0103 C   0  0  0  0  0  0  0  0  0  0  0  0
  -24.3894   10.1244  -33.1221 C   0  0  0  0  0  0  0  0  0  0  0  0
  -25.7752   10.0990  -33.6592 C   0  0  0  0  0  0  0  0  0  0  0  0
  -26.3697    8.9936  -33.8961 O   0  0  0  0  0  0  0  0  0  0  0  0
  -26.5071   11.2413  -33.9362 O   0  0  0  0  0  0  0  0  0  0  0  0
  -24.8441   12.5980  -32.9532 C   0  0  0  0  0  0  0  0  0  0  0  0
  -24.4053   13.9128  -32.8503 C   0  0  0  0  0  0  0  0  0  0  0  0
  -23.1479   16.4608  -31.8222 C   0  0  0  0  0  0  0  0  0  0  0  0
  -22.6328   17.7600  -31.7596 C   0  0  0  0  0  0  0  0  0  0  0  0
  -19.8518   19.9687  -32.2087 C   0  0  0  0  0  0  0  0  0  0  0  0
  -18.6213   19.2739  -32.0597 N   0  0  0  0  0  0  0  0  0  0  0  0
  -17.5662   19.4067  -33.0183 C   0  0  0  0  0  0  0  0  0  0  0  0
  -17.7907   20.1049  -34.0118 O   0  0  0  0  0  0  0  0  0  0  0  0
  -16.3374   18.7889  -32.8625 O   0  0  0  0  0  0  0  0  0  0  0  0
  -16.0742   17.8042  -31.8710 C   0  0  2  0  0  0  0  0  0  0  0  0
  -14.5681   17.5180  -31.8021 C   0  0  0  0  0  0  0  0  0  0  0  0
  -16.7060   16.4991  -32.1933 C   0  0  0  0  0  0  0  0  0  0  0  0
  -16.8566   16.0809  -33.5106 C   0  0  0  0  0  0  0  0  0  0  0  0
  -17.4368   14.8854  -33.8421 C   0  0  0  0  0  0  0  0  0  0  0  0
  -17.9034   14.0343  -32.8498 C   0  0  0  0  0  0  0  0  0  0  0  0
  -17.7596   14.4376  -31.5412 C   0  0  0  0  0  0  0  0  0  0  0  0
  -17.1727   15.6459  -31.2189 C   0  0  0  0  0  0  0  0  0  0  0  0
  -17.0103   16.1188  -29.5344 Cl  0  0  0  0  0  0  0  0  0  0  0  0
  1  2  1  0
  2  3  2  0
  3  4  1  0
  4  5  1  0
  5  6  1  0
  6  7  2  0
  7  8  1  0
  8  9  2  0
  9 10  1  0
 10 11  2  0
 11 12  1  0
 12 13  2  0
 13 14  1  0
 14 15  1  0
 15 16  2  0
 15 17  1  0
 13 18  1  0
 18 19  2  0
  9 20  1  0
 20 21  2  0
  5 22  2  0
 22 23  1  0
 23 24  1  0
 24 25  2  0
 24 26  1  0
 26 27  1  0
 27 28  1  6
 27 29  1  0
 29 30  2  0
 30 31  1  0
 31 32  2  0
 32 33  1  0
 33 34  2  0
 34 35  1  0
 22  2  1  0
 34 29  1  0
 21  6  1  0
 19 10  1  0
M  END
$$$$
