
     RDKit          3D

 35 37  0  0  0  0  0  0  0  0999 V2000
  -17.4665   19.7323  -46.4023 C   0  0  0  0  0  0  0  0  0  0  0  0
  -16.6762   19.3036  -45.2558 N   0  0  0  0  0  0  0  0  0  0  0  0
  -17.0543   19.6676  -43.9448 C   0  0  0  0  0  0  0  0  0  0  0  0
  -18.0695   20.4009  -43.8118 O   0  0  0  0  0  0  0  0  0  0  0  0
  -16.3202   19.2301  -42.7548 C   0  0  0  0  0  0  0  0  0  0  0  0
  -16.8355   18.3469  -41.8488 C   0  0  0  0  0  0  0  0  0  0  0  0
  -16.1358   17.9471  -40.7416 C   0  0  0  0  0  0  0  0  0  0  0  0
  -14.8443   18.4265  -40.4775 C   0  0  0  0  0  0  0  0  0  0  0  0
  -14.1757   17.9873  -39.3338 N   0  0  0  0  0  0  0  0  0  0  0  0
  -14.6215   18.0187  -37.9909 C   0  0  0  0  0  0  0  0  0  0  0  0
  -13.8488   17.7953  -36.9224 N   0  0  0  0  0  0  0  0  0  0  0  0
  -14.2945   17.8285  -35.6613 C   0  0  0  0  0  0  0  0  0  0  0  0
  -15.6171   18.1040  -35.3864 C   0  0  0  0  0  0  0  0  0  0  0  0
  -16.1223   18.1447  -33.9879 C   0  0  0  0  0  0  0  0  0  0  0  0
  -16.3875   19.4481  -33.5890 F   0  0  0  0  0  0  0  0  0  0  0  0
  -17.3464   17.4832  -33.9552 F   0  0  0  0  0  0  0  0  0  0  0  0
  -15.2914   17.4831  -33.1129 F   0  0  0  0  0  0  0  0  0  0  0  0
  -16.4319   18.3374  -36.4697 C   0  0  0  0  0  0  0  0  0  0  0  0
  -17.8097   18.6254  -36.3077 N   0  0  0  0  0  0  0  0  0  0  0  0
  -18.7605   18.6529  -37.3722 C   0  0  0  0  0  0  0  0  0  0  0  0
  -18.6908   19.9422  -38.0953 C   0  0  0  0  0  0  0  0  0  0  0  0
  -17.7071   20.1984  -38.9967 N   0  0  0  0  0  0  0  0  0  0  0  0
  -17.6071   21.3474  -39.6724 C   0  0  0  0  0  0  0  0  0  0  0  0
  -18.5319   22.3444  -39.4690 C   0  0  0  0  0  0  0  0  0  0  0  0
  -19.5095   22.1232  -38.5905 N   0  0  0  0  0  0  0  0  0  0  0  0
  -19.6070   20.9471  -37.9026 C   0  0  0  0  0  0  0  0  0  0  0  0
  -20.6834   20.8277  -37.0083 N   0  0  0  0  0  0  0  0  0  0  0  0
  -20.5012   21.0474  -35.5974 C   0  0  0  0  0  0  0  0  0  0  0  0
  -22.2368   20.4132  -37.6113 S   0  0  0  0  0  6  0  0  0  0  0  0
  -22.9340   21.7483  -38.5204 C   0  0  0  0  0  0  0  0  0  0  0  0
  -23.1667   20.0912  -36.4478 O   0  0  0  0  0  0  0  0  0  0  0  0
  -22.1242   19.1627  -38.4665 O   0  0  0  0  0  0  0  0  0  0  0  0
  -15.9284   18.2902  -37.7030 N   0  0  0  0  0  0  0  0  0  0  0  0
  -14.3338   19.3163  -41.3965 C   0  0  0  0  0  0  0  0  0  0  0  0
  -15.0545   19.7058  -42.5044 C   0  0  0  0  0  0  0  0  0  0  0  0
  1  2  1  0
  2  3  1  0
  3  4  2  0
  3  5  1  0
  5  6  2  0
  6  7  1  0
  7  8  2  0
  8  9  1  0
  9 10  1  0
 10 11  2  0
 11 12  1  0
 12 13  2  0
 13 14  1  0
 14 15  1  0
 14 16  1  0
 14 17  1  0
 13 18  1  0
 18 19  1  0
 19 20  1  0
 20 21  1  0
 21 22  2  0
 22 23  1  0
 23 24  2  0
 24 25  1  0
 25 26  2  0
 26 27  1  0
 27 28  1  0
 27 29  1  0
 29 30  1  0
 29 31  2  0
 29 32  2  0
 18 33  2  0
  8 34  1  0
 34 35  2  0
 35  5  1  0
 33 10  1  0
 26 21  1  0
M  END
$$$$
