
     RDKit          3D

 19 20  0  0  0  0  0  0  0  0999 V2000
  -15.3650   19.2926  -30.4182 C   0  0  0  0  0  0  0  0  0  0  0  0
  -15.5658   18.9392  -31.8746 C   0  0  0  0  0  0  0  0  0  0  0  0
  -14.2794   18.4057  -32.4203 C   0  0  0  0  0  0  0  0  0  0  0  0
  -16.6817   17.9717  -31.9662 C   0  0  0  0  0  0  0  0  0  0  0  0
  -17.8039   18.3587  -32.6690 C   0  0  0  0  0  0  0  0  0  0  0  0
  -17.8615   19.6240  -33.2643 O   0  0  0  0  0  0  0  0  0  0  0  0
  -18.8637   17.4848  -32.7761 C   0  0  0  0  0  0  0  0  0  0  0  0
  -18.8567   16.2143  -32.2024 C   0  0  0  0  0  0  0  0  0  0  0  0
  -20.0310   15.3646  -32.3744 C   0  0  0  0  0  0  0  0  0  0  0  0
  -20.7841   15.3383  -33.4527 C   0  0  0  0  0  0  0  0  0  0  0  0
  -21.9175   14.4441  -33.6650 C   0  0  0  0  0  0  0  0  0  0  0  0
  -21.6576   13.1012  -33.8791 C   0  0  0  0  0  0  0  0  0  0  0  0
  -22.7001   12.2268  -34.0832 C   0  0  0  0  0  0  0  0  0  0  0  0
  -24.0023   12.6306  -34.0842 C   0  0  0  0  0  0  0  0  0  0  0  0
  -24.2695   13.9564  -33.8734 C   0  0  0  0  0  0  0  0  0  0  0  0
  -23.2241   14.8500  -33.6659 C   0  0  0  0  0  0  0  0  0  0  0  0
  -17.7452   15.8352  -31.5081 C   0  0  0  0  0  0  0  0  0  0  0  0
  -16.6686   16.7221  -31.3989 C   0  0  0  0  0  0  0  0  0  0  0  0
  -15.5329   16.3482  -30.6957 O   0  0  0  0  0  0  0  0  0  0  0  0
  1  2  1  0
  2  3  1  0
  2  4  1  0
  4  5  2  0
  5  6  1  0
  5  7  1  0
  7  8  2  0
  8  9  1  0
  9 10  2  0
 10 11  1  0
 11 12  2  0
 12 13  1  0
 13 14  2  0
 14 15  1  0
 15 16  2  0
  8 17  1  0
 17 18  2  0
 18 19  1  0
 18  4  1  0
 16 11  1  0
M  END
$$$$
