
     RDKit          3D

 28 32  0  0  0  0  0  0  0  0999 V2000
  -31.1445   18.6146  -27.2926 O   0  0  0  0  0  0  0  0  0  0  0  0
  -30.7447   17.7278  -26.4519 C   0  0  0  0  0  0  0  0  0  0  0  0
  -29.3741   17.7130  -26.1196 C   0  0  0  0  0  0  0  0  0  0  0  0
  -28.3941   16.7479  -26.2624 C   0  0  0  0  0  0  0  0  0  0  0  0
  -27.1402   16.9988  -25.9023 C   0  0  0  0  0  0  0  0  0  0  0  0
  -26.8332   18.2346  -25.3842 C   0  0  0  0  0  0  0  0  0  0  0  0
  -28.4093   19.1089  -25.4001 S   0  0  0  0  0  0  0  0  0  0  0  0
  -25.5555   18.8509  -24.9049 C   0  0  0  0  0  0  0  0  0  0  0  0
  -24.3855   18.2583  -25.6828 C   0  0  0  0  0  0  0  0  0  0  0  0
  -24.8141   17.8811  -27.0803 C   0  0  0  0  0  0  0  0  0  0  0  0
  -25.1952   16.4422  -27.2379 C   0  0  0  0  0  0  0  0  0  0  0  0
  -26.0102   15.9624  -26.0555 C   0  0  0  0  0  0  0  0  0  0  0  0
  -31.6995   16.8024  -25.8976 N   0  0  0  0  0  0  0  0  0  0  0  0
  -31.7410   16.6206  -24.4829 C   0  0  0  0  0  0  0  0  0  0  0  0
  -32.6837   15.4869  -24.1484 C   0  0  0  0  0  0  0  0  0  0  0  0
  -34.0166   15.7841  -24.8656 C   0  0  0  0  0  0  0  0  0  0  0  0
  -35.0632   15.1950  -24.1264 N   0  0  0  0  0  0  0  0  0  0  0  0
  -35.2118   15.4971  -22.7973 C   0  0  0  0  0  0  0  0  0  0  0  0
  -34.5080   16.2636  -22.1004 O   0  0  0  0  0  0  0  0  0  0  0  0
  -36.2554   14.8411  -22.3154 N   0  0  0  0  0  0  0  0  0  0  0  0
  -36.7817   14.1221  -23.3120 C   0  0  0  0  0  0  0  0  0  0  0  0
  -37.8703   13.2791  -23.3412 C   0  0  0  0  0  0  0  0  0  0  0  0
  -38.2098   12.6547  -24.5247 C   0  0  0  0  0  0  0  0  0  0  0  0
  -37.4652   12.8723  -25.6700 C   0  0  0  0  0  0  0  0  0  0  0  0
  -36.3774   13.7144  -25.6422 C   0  0  0  0  0  0  0  0  0  0  0  0
  -36.0437   14.3315  -24.4661 C   0  0  0  0  0  0  0  0  0  0  0  0
  -33.7793   15.4266  -26.2625 C   0  0  0  0  0  0  0  0  0  0  0  0
  -32.5661   16.1046  -26.8060 C   0  0  0  0  0  0  0  0  0  0  0  0
  1  2  2  0
  2  3  1  0
  3  4  2  0
  4  5  1  0
  5  6  2  0
  6  7  1  0
  6  8  1  0
  8  9  1  0
  9 10  1  0
 10 11  1  0
 11 12  1  0
  2 13  1  0
 13 14  1  0
 14 15  1  0
 15 16  1  0
 16 17  1  0
 17 18  1  0
 18 19  2  0
 18 20  1  0
 20 21  1  0
 21 22  2  0
 22 23  1  0
 23 24  2  0
 24 25  1  0
 25 26  2  0
 16 27  1  0
 27 28  1  0
  7  3  1  0
 28 13  1  0
 12  5  1  0
 26 17  1  0
 26 21  1  0
M  END
$$$$
