
     RDKit          3D

 22 25  0  0  0  0  0  0  0  0999 V2000
  -11.7373   14.2971  -30.9462 C   0  0  0  0  0  0  0  0  0  0  0  0
  -13.1956   14.3719  -31.2321 C   0  0  0  0  0  0  0  0  0  0  0  0
  -13.9075   13.3042  -31.7489 C   0  0  0  0  0  0  0  0  0  0  0  0
  -15.2584   13.4746  -31.9749 C   0  0  0  0  0  0  0  0  0  0  0  0
  -15.9103   14.6576  -31.7056 C   0  0  0  0  0  0  0  0  0  0  0  0
  -15.1640   15.6983  -31.1908 C   0  0  0  0  0  0  0  0  0  0  0  0
  -15.7966   16.9718  -30.8768 C   0  0  0  0  0  0  0  0  0  0  0  0
  -15.4431   17.8259  -29.8846 N   0  0  0  0  0  0  0  0  0  0  0  0
  -16.2271   18.8841  -29.8892 N   0  0  0  0  0  0  0  0  0  0  0  0
  -17.1137   18.7306  -30.8990 C   0  0  0  0  0  0  0  0  0  0  0  0
  -16.8591   17.5286  -31.5357 C   0  0  0  0  0  0  0  0  0  0  0  0
  -17.5576   16.9499  -32.6687 C   0  0  0  0  0  0  0  0  0  0  0  0
  -17.3661   17.3832  -33.9671 C   0  0  0  0  0  0  0  0  0  0  0  0
  -18.0636   16.7879  -34.9928 C   0  0  0  0  0  0  0  0  0  0  0  0
  -18.9349   15.7895  -34.7819 N   0  0  0  0  0  0  0  0  0  0  0  0
  -19.1536   15.3360  -33.5437 C   0  0  0  0  0  0  0  0  0  0  0  0
  -20.0568   14.3047  -33.3750 C   0  0  0  0  0  0  0  0  0  0  0  0
  -20.2553   13.8594  -32.0836 C   0  0  0  0  0  0  0  0  0  0  0  0
  -19.6039   14.3940  -31.0009 C   0  0  0  0  0  0  0  0  0  0  0  0
  -18.7138   15.4198  -31.2225 C   0  0  0  0  0  0  0  0  0  0  0  0
  -18.4682   15.9147  -32.4998 C   0  0  0  0  0  0  0  0  0  0  0  0
  -13.8401   15.5086  -30.9774 N   0  0  0  0  0  0  0  0  0  0  0  0
  1  2  1  0
  2  3  2  0
  3  4  1  0
  4  5  2  0
  5  6  1  0
  6  7  1  0
  7  8  2  0
  8  9  1  0
  9 10  1  0
 10 11  2  0
 11 12  1  0
 12 13  2  0
 13 14  1  0
 14 15  2  0
 15 16  1  0
 16 17  2  0
 17 18  1  0
 18 19  2  0
 19 20  1  0
 20 21  2  0
  6 22  2  0
 22  2  1  0
 11  7  1  0
 21 12  1  0
 21 16  1  0
M  END
$$$$
