
     RDKit          3D

 34 38  0  0  0  0  0  0  0  0999 V2000
  -26.0814   22.0878  -33.9699 C   0  0  0  0  0  0  0  0  0  0  0  0
  -25.7677   22.4651  -32.5210 C   0  0  0  0  0  0  0  0  0  0  0  0
  -27.0145   22.2136  -31.7053 C   0  0  0  0  0  0  0  0  0  0  0  0
  -24.6587   21.6605  -32.0589 N   0  0  0  0  0  0  0  0  0  0  0  0
  -23.3376   22.0829  -32.3175 C   0  0  0  0  0  0  0  0  0  0  0  0
  -23.1491   23.1212  -32.9940 O   0  0  0  0  0  0  0  0  0  0  0  0
  -22.1518   21.3526  -31.8248 C   0  0  0  0  0  0  0  0  0  0  0  0
  -20.9478   21.9438  -32.3207 O   0  0  0  0  0  0  0  0  0  0  0  0
  -19.7111   21.5611  -31.8748 C   0  0  0  0  0  0  0  0  0  0  0  0
  -18.7993   22.4940  -31.4488 C   0  0  0  0  0  0  0  0  0  0  0  0
  -17.5484   22.1058  -30.9971 C   0  0  0  0  0  0  0  0  0  0  0  0
  -17.2029   20.7568  -30.9711 C   0  0  0  0  0  0  0  0  0  0  0  0
  -18.1090   19.8263  -31.3947 C   0  0  0  0  0  0  0  0  0  0  0  0
  -17.8073   18.3815  -31.3903 C   0  0  0  0  0  0  0  0  0  0  0  0
  -18.7117   17.4732  -31.7712 N   0  0  0  0  0  0  0  0  0  0  0  0
  -18.5250   16.1427  -31.8005 C   0  0  0  0  0  0  0  0  0  0  0  0
  -19.5186   15.2408  -32.2160 N   0  0  0  0  0  0  0  0  0  0  0  0
  -20.7913   15.6526  -32.6482 C   0  0  0  0  0  0  0  0  0  0  0  0
  -21.9470   14.9481  -32.4790 C   0  0  0  0  0  0  0  0  0  0  0  0
  -23.1813   15.4023  -32.9456 C   0  0  0  0  0  0  0  0  0  0  0  0
  -23.2793   16.5861  -33.5979 C   0  0  0  0  0  0  0  0  0  0  0  0
  -24.3053   17.2727  -34.1509 N   0  0  0  0  0  0  0  0  0  0  0  0
  -23.8567   18.3983  -34.6731 N   0  0  0  0  0  0  0  0  0  0  0  0
  -22.5395   18.4666  -34.4717 C   0  0  0  0  0  0  0  0  0  0  0  0
  -22.1420   17.3262  -33.7889 C   0  0  0  0  0  0  0  0  0  0  0  0
  -20.9250   16.8748  -33.3271 C   0  0  0  0  0  0  0  0  0  0  0  0
  -17.2633   15.6898  -31.3912 C   0  0  0  0  0  0  0  0  0  0  0  0
  -16.9288   14.3641  -31.3703 C   0  0  0  0  0  0  0  0  0  0  0  0
  -15.6643   13.9284  -30.9606 C   0  0  0  0  0  0  0  0  0  0  0  0
  -14.7086   14.8337  -30.5619 C   0  0  0  0  0  0  0  0  0  0  0  0
  -15.0399   16.1697  -30.5810 C   0  0  0  0  0  0  0  0  0  0  0  0
  -16.3042   16.6008  -30.9908 C   0  0  0  0  0  0  0  0  0  0  0  0
  -16.6096   17.9199  -31.0038 N   0  0  0  0  0  0  0  0  0  0  0  0
  -19.3520   20.2261  -31.8426 C   0  0  0  0  0  0  0  0  0  0  0  0
  1  2  1  0
  2  3  1  0
  2  4  1  0
  4  5  1  0
  5  6  2  0
  5  7  1  0
  7  8  1  0
  8  9  1  0
  9 10  2  0
 10 11  1  0
 11 12  2  0
 12 13  1  0
 13 14  1  0
 14 15  2  0
 15 16  1  0
 16 17  1  0
 17 18  1  0
 18 19  2  0
 19 20  1  0
 20 21  2  0
 21 22  1  0
 22 23  1  0
 23 24  2  0
 24 25  1  0
 25 26  2  0
 16 27  2  0
 27 28  1  0
 28 29  2  0
 29 30  1  0
 30 31  2  0
 31 32  1  0
 32 33  2  0
 13 34  2  0
 34  9  1  0
 33 14  1  0
 26 18  1  0
 32 27  1  0
 25 21  1  0
M  END
$$$$
