
     RDKit          3D

 33 37  0  0  0  0  0  0  0  0999 V2000
  -14.9000   44.1974  -19.8366 C   0  0  0  0  0  0  0  0  0  0  0  0
  -15.3534   44.5838  -21.0912 O   0  0  0  0  0  0  0  0  0  0  0  0
  -16.0875   43.8300  -21.9662 C   0  0  0  0  0  0  0  0  0  0  0  0
  -16.1859   44.2224  -23.2825 C   0  0  0  0  0  0  0  0  0  0  0  0
  -16.9173   43.4940  -24.2062 C   0  0  0  0  0  0  0  0  0  0  0  0
  -17.5739   42.3341  -23.8060 C   0  0  0  0  0  0  0  0  0  0  0  0
  -17.4873   41.9308  -22.5127 C   0  0  0  0  0  0  0  0  0  0  0  0
  -16.7387   42.6908  -21.6017 C   0  0  0  0  0  0  0  0  0  0  0  0
  -18.2165   40.7716  -22.3619 C   0  0  0  0  0  0  0  0  0  0  0  0
  -18.3722   39.9798  -21.1642 C   0  0  0  0  0  0  0  0  0  0  0  0
  -18.2036   38.6564  -21.1405 C   0  0  0  0  0  0  0  0  0  0  0  0
  -17.8467   37.8044  -22.2926 C   0  0  0  0  0  0  0  0  0  0  0  0
  -16.9938   38.1088  -23.3384 C   0  0  0  0  0  0  0  0  0  0  0  0
  -16.9113   37.0806  -24.1776 N   0  0  0  0  0  0  0  0  0  0  0  0
  -17.6908   36.0709  -23.7312 C   0  0  0  0  0  0  0  0  0  0  0  0
  -17.9221   34.8223  -24.2524 C   0  0  0  0  0  0  0  0  0  0  0  0
  -18.7717   33.9692  -23.5807 C   0  0  0  0  0  0  0  0  0  0  0  0
  -19.3685   34.3829  -22.4087 C   0  0  0  0  0  0  0  0  0  0  0  0
  -19.1177   35.6450  -21.9080 C   0  0  0  0  0  0  0  0  0  0  0  0
  -18.2811   36.5257  -22.5417 C   0  0  0  0  0  0  0  0  0  0  0  0
  -18.4437   38.2383  -19.7734 C   0  0  0  0  0  0  0  0  0  0  0  0
  -18.3981   37.0653  -19.2845 O   0  0  0  0  0  0  0  0  0  0  0  0
  -18.7600   39.3715  -18.9841 N   0  0  0  0  0  0  0  0  0  0  0  0
  -18.7193   40.5063  -19.8586 C   0  0  0  0  0  0  0  0  0  0  0  0
  -18.9557   41.6740  -19.4542 O   0  0  0  0  0  0  0  0  0  0  0  0
  -18.7458   40.4978  -23.6165 C   0  0  0  0  0  0  0  0  0  0  0  0
  -18.3522   41.4462  -24.4824 N   0  0  0  0  0  0  0  0  0  0  0  0
  -18.6337   41.6207  -25.8816 C   0  0  0  0  0  0  0  0  0  0  0  0
  -19.2103   40.3424  -26.4895 C   0  0  0  0  0  0  0  0  0  0  0  0
  -20.7168   40.3330  -26.3458 C   0  0  0  0  0  0  0  0  0  0  0  0
  -21.3831   39.3479  -27.1306 N   0  0  0  0  0  0  0  0  0  0  0  0
  -20.5669   38.1222  -27.1301 C   0  0  0  0  0  0  0  0  0  0  0  0
  -22.6741   38.9632  -26.6134 C   0  0  0  0  0  0  0  0  0  0  0  0
  1  2  1  0
  2  3  1  0
  3  4  2  0
  4  5  1  0
  5  6  2  0
  6  7  1  0
  7  8  2  0
  7  9  1  0
  9 10  1  0
 10 11  2  0
 11 12  1  0
 12 13  2  0
 13 14  1  0
 14 15  1  0
 15 16  2  0
 16 17  1  0
 17 18  2  0
 18 19  1  0
 19 20  2  0
 11 21  1  0
 21 22  2  0
 21 23  1  0
 23 24  1  0
 24 25  2  0
  9 26  2  0
 26 27  1  0
 27 28  1  0
 28 29  1  0
 29 30  1  0
 30 31  1  0
 31 32  1  0
 31 33  1  0
  8  3  1  0
 24 10  1  0
 27  6  1  0
 20 12  1  0
 20 15  1  0
M  END
$$$$
