
     RDKit          3D

 34 38  0  0  0  0  0  0  0  0999 V2000
  -29.8106   24.1661  -26.8515 C   0  0  0  0  0  0  0  0  0  0  0  0
  -29.4624   22.7445  -27.1025 C   0  0  0  0  0  0  0  0  0  0  0  0
  -29.9847   21.6250  -26.5965 N   0  0  0  0  0  0  0  0  0  0  0  0
  -29.3500   20.5436  -27.1144 C   0  0  0  0  0  0  0  0  0  0  0  0
  -29.6272   19.1305  -26.8131 C   0  0  0  0  0  0  0  0  0  0  0  0
  -28.7139   18.1126  -26.9757 C   0  0  0  0  0  0  0  0  0  0  0  0
  -29.2911   16.9799  -26.6132 N   0  0  0  0  0  0  0  0  0  0  0  0
  -30.5497   17.2731  -26.2269 C   0  0  0  0  0  0  0  0  0  0  0  0
  -30.7661   18.5942  -26.3463 N   0  0  0  0  0  0  0  0  0  0  0  0
  -31.5903   16.3509  -25.7374 C   0  0  0  0  0  0  0  0  0  0  0  0
  -32.8658   16.8746  -25.7948 C   0  0  0  0  0  0  0  0  0  0  0  0
  -33.9321   16.0958  -25.3597 C   0  0  0  0  0  0  0  0  0  0  0  0
  -33.7715   14.8153  -24.8702 C   0  0  0  0  0  0  0  0  0  0  0  0
  -34.9150   14.0087  -24.4147 C   0  0  0  0  0  0  0  0  0  0  0  0
  -35.8730   14.3842  -23.5055 C   0  0  0  0  0  0  0  0  0  0  0  0
  -36.7507   13.3913  -23.3440 N   0  0  0  0  0  0  0  0  0  0  0  0
  -36.3854   12.3864  -24.1236 N   0  0  0  0  0  0  0  0  0  0  0  0
  -37.0664   11.1198  -24.2475 C   0  0  0  0  0  0  0  0  0  0  0  0
  -38.1408   11.0381  -23.1574 C   0  0  0  0  0  0  0  0  0  0  0  0
  -37.6778   10.9727  -25.6165 C   0  0  0  0  0  0  0  0  0  0  0  0
  -36.1480    9.9826  -24.0286 C   0  0  0  0  0  0  0  0  0  0  0  0
  -35.5055    9.3306  -25.1187 N   0  0  0  0  0  0  0  0  0  0  0  0
  -35.8865    9.5325  -22.8717 O   0  0  0  0  0  0  0  0  0  0  0  0
  -35.2631   12.7244  -24.7981 C   0  0  0  0  0  0  0  0  0  0  0  0
  -32.4811   14.3240  -24.8274 C   0  0  0  0  0  0  0  0  0  0  0  0
  -31.4023   15.0726  -25.2520 C   0  0  0  0  0  0  0  0  0  0  0  0
  -30.1711   14.3974  -25.1292 O   0  0  0  0  0  0  0  0  0  0  0  0
  -28.8623   14.9435  -25.2920 C   0  0  0  0  0  0  0  0  0  0  0  0
  -28.7067   15.6457  -26.6177 C   0  0  0  0  0  0  0  0  0  0  0  0
  -28.4240   21.0420  -27.9523 N   0  0  0  0  0  0  0  0  0  0  0  0
  -27.4802   20.2609  -28.7550 C   0  0  0  0  0  0  0  0  0  0  0  0
  -26.4198   21.2361  -29.2667 C   0  0  0  0  0  0  0  0  0  0  0  0
  -28.2322   19.7677  -29.9565 C   0  0  0  0  0  0  0  0  0  0  0  0
  -28.4828   22.3813  -27.9535 N   0  0  0  0  0  0  0  0  0  0  0  0
  1  2  1  0
  2  3  1  0
  3  4  2  0
  4  5  1  0
  5  6  2  0
  6  7  1  0
  7  8  1  0
  8  9  2  0
  8 10  1  0
 10 11  2  0
 11 12  1  0
 12 13  2  0
 13 14  1  0
 14 15  1  0
 15 16  2  0
 16 17  1  0
 17 18  1  0
 18 19  1  0
 18 20  1  0
 18 21  1  0
 21 22  1  0
 21 23  2  0
 17 24  1  0
 13 25  1  0
 25 26  2  0
 26 27  1  0
 27 28  1  0
 28 29  1  0
  4 30  1  0
 30 31  1  0
 31 32  1  0
 31 33  1  0
 30 34  1  0
 34  2  2  0
  9  5  1  0
 26 10  1  0
 29  7  1  0
 24 14  2  0
M  END
$$$$
