
     RDKit          3D

 40 45  0  0  0  0  0  0  0  0999 V2000
  -17.5501   48.0372  -22.8767 C   0  0  0  0  0  0  0  0  0  0  0  0
  -18.4230   46.9505  -22.0752 C   0  0  2  0  0  0  0  0  0  0  0  0
  -18.8152   47.7181  -20.9421 N   0  0  0  0  0  0  0  0  0  0  0  0
  -19.8131   47.3338  -20.0407 C   0  0  0  0  0  0  0  0  0  0  0  0
  -20.5327   46.3445  -20.2429 O   0  0  0  0  0  0  0  0  0  0  0  0
  -20.0957   48.0662  -18.7567 C   0  0  0  0  0  0  0  0  0  0  0  0
  -21.1286   47.6723  -17.9056 C   0  0  0  0  0  0  0  0  0  0  0  0
  -22.0267   46.5846  -18.0431 N   0  0  0  0  0  0  0  0  0  0  0  0
  -21.1415   48.5752  -16.9154 N   0  0  0  0  0  0  0  0  0  0  0  0
  -20.2098   49.4745  -17.1105 N   0  0  0  0  0  0  0  0  0  0  0  0
  -19.9638   50.5744  -16.3395 C   0  0  0  0  0  0  0  0  0  0  0  0
  -18.9722   51.4572  -16.7401 C   0  0  0  0  0  0  0  0  0  0  0  0
  -18.2654   51.1766  -17.9011 C   0  0  0  0  0  0  0  0  0  0  0  0
  -18.5610   50.0671  -18.6227 N   0  0  0  0  0  0  0  0  0  0  0  0
  -19.5282   49.1933  -18.2509 C   0  0  0  0  0  0  0  0  0  0  0  0
  -17.6233   45.7493  -21.9891 C   0  0  0  0  0  0  0  0  0  0  0  0
  -16.5725   45.6038  -21.1115 C   0  0  0  0  0  0  0  0  0  0  0  0
  -15.8950   44.3829  -20.9042 C   0  0  0  0  0  0  0  0  0  0  0  0
  -14.8584   44.3417  -19.9901 C   0  0  0  0  0  0  0  0  0  0  0  0
  -14.2653   43.0498  -19.8436 C   0  0  0  0  0  0  0  0  0  0  0  0
  -14.6984   41.9831  -20.5422 C   0  0  0  0  0  0  0  0  0  0  0  0
  -15.7508   42.0125  -21.4643 C   0  0  0  0  0  0  0  0  0  0  0  0
  -16.4128   40.8909  -21.9168 C   0  0  0  0  0  0  0  0  0  0  0  0
  -17.0286   39.8494  -22.3613 C   0  0  0  0  0  0  0  0  0  0  0  0
  -17.7480   38.6714  -22.8753 C   0  0  0  0  0  0  0  0  0  0  0  0
  -18.2156   37.6193  -22.1074 C   0  0  0  0  0  0  0  0  0  0  0  0
  -18.6864   36.7203  -22.9983 N   0  0  0  0  0  0  0  0  0  0  0  0
  -18.5480   37.1399  -24.2483 N   0  0  0  0  0  0  0  0  0  0  0  0
  -18.8776   36.6198  -25.5485 C   0  0  0  0  0  0  0  0  0  0  0  0
  -17.9529   38.3758  -24.1540 C   0  0  0  0  0  0  0  0  0  0  0  0
  -16.3102   43.2938  -21.6065 C   0  0  0  0  0  0  0  0  0  0  0  0
  -17.3299   43.4554  -22.4694 C   0  0  0  0  0  0  0  0  0  0  0  0
  -17.7104   42.3990  -23.1379 O   0  0  0  0  0  0  0  0  0  0  0  0
  -17.9828   44.5972  -22.6952 N   0  0  0  0  0  0  0  0  0  0  0  0
  -18.7495   44.6589  -23.8621 C   0  0  0  0  0  0  0  0  0  0  0  0
  -20.0889   44.3112  -24.0259 C   0  0  0  0  0  0  0  0  0  0  0  0
  -20.6830   44.2316  -25.2456 C   0  0  0  0  0  0  0  0  0  0  0  0
  -20.0253   44.4896  -26.4537 C   0  0  0  0  0  0  0  0  0  0  0  0
  -18.6628   44.8508  -26.3080 C   0  0  0  0  0  0  0  0  0  0  0  0
  -18.1472   44.9095  -25.1113 C   0  0  0  0  0  0  0  0  0  0  0  0
  2  1  1  6
  2  3  1  0
  3  4  1  0
  4  5  2  0
  4  6  1  0
  6  7  1  0
  7  8  1  0
  7  9  2  0
  9 10  1  0
 10 11  1  0
 11 12  2  0
 12 13  1  0
 13 14  2  0
 14 15  1  0
  2 16  1  0
 16 17  2  0
 17 18  1  0
 18 19  2  0
 19 20  1  0
 20 21  2  0
 21 22  1  0
 22 23  1  0
 23 24  3  0
 24 25  1  0
 25 26  1  0
 26 27  2  0
 27 28  1  0
 28 29  1  0
 28 30  1  0
 22 31  2  0
 31 32  1  0
 32 33  2  0
 32 34  1  0
 34 35  1  0
 35 36  2  0
 36 37  1  0
 37 38  2  0
 38 39  1  0
 39 40  2  0
 15  6  2  0
 34 16  1  0
 40 35  1  0
 15 10  1  0
 31 18  1  0
 30 25  2  0
M  END
$$$$
