
     RDKit          3D

 16 17  0  0  0  0  0  0  0  0999 V2000
  -29.4240   24.5433  -34.0034 C   0  0  0  0  0  0  0  0  0  0  0  0
  -28.6078   24.5231  -32.7706 C   0  0  0  0  0  0  0  0  0  0  0  0
  -27.6844   25.3924  -32.6697 O   0  0  0  0  0  0  0  0  0  0  0  0
  -28.8527   23.5492  -31.7198 C   0  0  0  0  0  0  0  0  0  0  0  0
  -29.8830   22.6135  -31.8803 C   0  0  0  0  0  0  0  0  0  0  0  0
  -30.1629   21.6673  -30.9210 C   0  0  0  0  0  0  0  0  0  0  0  0
  -29.4220   21.6217  -29.7642 C   0  0  0  0  0  0  0  0  0  0  0  0
  -29.7016   20.6616  -28.7790 N   0  0  0  0  0  0  0  0  0  0  0  0
  -29.4530   20.9584  -27.3840 C   0  0  0  0  0  0  0  0  0  0  0  0
  -29.5055   19.7819  -26.4840 C   0  0  0  0  0  0  0  0  0  0  0  0
  -29.7107   18.5566  -27.1081 O   0  0  0  0  0  0  0  0  0  0  0  0
  -30.8145   18.7147  -27.9706 C   0  0  0  0  0  0  0  0  0  0  0  0
  -30.2457   19.3763  -29.2063 C   0  0  0  0  0  0  0  0  0  0  0  0
  -28.4108   22.5280  -29.5890 C   0  0  0  0  0  0  0  0  0  0  0  0
  -28.1189   23.4943  -30.5599 C   0  0  0  0  0  0  0  0  0  0  0  0
  -27.0869   24.4025  -30.3568 O   0  0  0  0  0  0  0  0  0  0  0  0
  1  2  1  0
  2  3  2  0
  2  4  1  0
  4  5  2  0
  5  6  1  0
  6  7  2  0
  7  8  1  0
  8  9  1  0
  9 10  1  0
 10 11  1  0
 11 12  1  0
 12 13  1  0
  7 14  1  0
 14 15  2  0
 15 16  1  0
 15  4  1  0
 13  8  1  0
M  END
$$$$
