
     RDKit          3D

 22 25  0  0  0  0  0  0  0  0999 V2000
  -15.9526   43.4326  -20.5895 C   0  0  0  0  0  0  0  0  0  0  0  0
  -16.3933   42.3938  -19.8092 C   0  0  0  0  0  0  0  0  0  0  0  0
  -17.2167   41.4175  -20.3756 C   0  0  0  0  0  0  0  0  0  0  0  0
  -17.6025   41.4614  -21.6925 C   0  0  0  0  0  0  0  0  0  0  0  0
  -18.4397   40.4508  -22.2300 N   0  0  0  0  0  0  0  0  0  0  0  0
  -19.0094   40.6927  -23.5357 C   0  0  0  0  0  0  0  0  0  0  0  0
  -19.5063   39.4812  -24.2235 C   0  0  0  0  0  0  0  0  0  0  0  0
  -19.7194   38.3224  -23.4412 N   0  0  0  0  0  0  0  0  0  0  0  0
  -18.8951   37.2051  -23.7730 C   0  0  0  0  0  0  0  0  0  0  0  0
  -19.3233   35.9534  -23.0939 C   0  0  0  0  0  0  0  0  0  0  0  0
  -18.5636   35.1206  -22.3386 N   0  0  0  0  0  0  0  0  0  0  0  0
  -19.3040   34.0940  -21.8935 C   0  0  0  0  0  0  0  0  0  0  0  0
  -19.0814   32.9845  -21.1161 C   0  0  0  0  0  0  0  0  0  0  0  0
  -20.0639   32.0749  -20.8164 C   0  0  0  0  0  0  0  0  0  0  0  0
  -21.3326   32.2643  -21.3058 C   0  0  0  0  0  0  0  0  0  0  0  0
  -21.5813   33.3705  -22.0887 C   0  0  0  0  0  0  0  0  0  0  0  0
  -20.5707   34.2839  -22.3827 C   0  0  0  0  0  0  0  0  0  0  0  0
  -20.5486   35.4035  -23.0956 N   0  0  0  0  0  0  0  0  0  0  0  0
  -19.8806   38.5744  -22.0494 C   0  0  0  0  0  0  0  0  0  0  0  0
  -18.6684   39.2657  -21.4581 C   0  0  0  0  0  0  0  0  0  0  0  0
  -17.1438   42.5033  -22.4219 N   0  0  0  0  0  0  0  0  0  0  0  0
  -16.3526   43.4561  -21.9086 C   0  0  0  0  0  0  0  0  0  0  0  0
  1  2  2  0
  2  3  1  0
  3  4  2  0
  4  5  1  0
  5  6  1  0
  6  7  1  0
  7  8  1  0
  8  9  1  0
  9 10  1  0
 10 11  2  0
 11 12  1  0
 12 13  2  0
 13 14  1  0
 14 15  2  0
 15 16  1  0
 16 17  2  0
 17 18  1  0
  8 19  1  0
 19 20  1  0
  4 21  1  0
 21 22  2  0
 22  1  1  0
 20  5  1  0
 18 10  1  0
 17 12  1  0
M  END
$$$$
