
     RDKit          3D

 17 16  0  0  0  0  0  0  0  0999 V2000
  -17.1043   46.7948  -20.8640 C   0  0  0  0  0  0  0  0  0  0  0  0
  -17.0848   45.4083  -20.3359 C   0  0  0  0  0  0  0  0  0  0  0  0
  -17.4621   44.2888  -21.2266 C   0  0  0  0  0  0  0  0  0  0  0  0
  -17.6861   42.9506  -20.6664 C   0  0  0  0  0  0  0  0  0  0  0  0
  -17.9593   41.8085  -21.5716 C   0  0  0  0  0  0  0  0  0  0  0  0
  -17.3646   40.5044  -21.0507 C   0  0  0  0  0  0  0  0  0  0  0  0
  -17.6384   39.3637  -22.0034 C   0  0  0  0  0  0  0  0  0  0  0  0
  -17.3158   38.0205  -21.4505 C   0  0  0  0  0  0  0  0  0  0  0  0
  -18.4206   37.0199  -21.5553 C   0  0  0  0  0  0  0  0  0  0  0  0
  -18.3612   36.2353  -22.8432 C   0  0  0  0  0  0  0  0  0  0  0  0
  -19.5014   35.2737  -23.0214 C   0  0  0  0  0  0  0  0  0  0  0  0
  -20.5740   35.9374  -23.8688 C   0  0  0  0  0  0  0  0  0  0  0  0
  -21.7853   35.2654  -23.7256 O   0  0  0  0  0  0  0  0  0  0  0  0
  -22.6935   35.8626  -22.4542 P   0  0  0  0  0  5  0  0  0  0  0  0
  -23.9268   36.5616  -23.0079 O   0  0  0  0  0  0  0  0  0  0  0  0
  -23.1654   34.6202  -21.4414 O   0  0  0  0  0  0  0  0  0  0  0  0
  -21.8170   37.0011  -21.5900 O   0  0  0  0  0  0  0  0  0  0  0  0
  1  2  1  0
  2  3  1  0
  3  4  1  0
  4  5  1  0
  5  6  1  0
  6  7  1  0
  7  8  1  0
  8  9  1  0
  9 10  1  0
 10 11  1  0
 11 12  1  0
 12 13  1  0
 13 14  1  0
 14 15  2  0
 14 16  1  0
 14 17  1  0
M  END
$$$$
