
     RDKit          3D

 27 29  0  0  0  0  0  0  0  0999 V2000
  -22.2666   32.3523  -24.5069 N   0  0  0  0  0  0  0  0  0  0  0  0
  -21.4173   33.0139  -24.0294 C   0  0  0  0  0  0  0  0  0  0  0  0
  -20.4031   33.8327  -23.4401 C   0  0  0  0  0  0  0  0  0  0  0  0
  -19.1010   33.8861  -23.8806 C   0  0  0  0  0  0  0  0  0  0  0  0
  -18.1994   34.6985  -23.2614 N   0  0  0  0  0  0  0  0  0  0  0  0
  -18.5426   35.4658  -22.2141 C   0  0  0  0  0  0  0  0  0  0  0  0
  -17.6312   36.3150  -21.5613 N   0  0  0  0  0  0  0  0  0  0  0  0
  -17.9859   37.6292  -21.1558 C   0  0  0  0  0  0  0  0  0  0  0  0
  -19.0668   38.2849  -21.7507 C   0  0  0  0  0  0  0  0  0  0  0  0
  -19.4516   39.5519  -21.3956 C   0  0  0  0  0  0  0  0  0  0  0  0
  -20.5203   40.2569  -21.9846 N   0  0  0  0  0  0  0  0  0  0  0  0
  -21.7593   39.7108  -22.4431 C   0  0  0  0  0  0  0  0  0  0  0  0
  -22.2975   40.4063  -23.6701 C   0  0  1  0  0  0  0  0  0  0  0  0
  -22.6534   39.3148  -24.6521 C   0  0  0  0  0  0  0  0  0  0  0  0
  -23.5391   39.7585  -25.6939 N   0  0  0  0  0  0  0  0  0  0  0  0
  -24.6894   40.3789  -25.0700 C   0  0  0  0  0  0  0  0  0  0  0  0
  -24.1637   41.6059  -24.3275 C   0  0  0  0  0  0  0  0  0  0  0  0
  -23.4035   41.1411  -23.2669 O   0  0  0  0  0  0  0  0  0  0  0  0
  -18.6832   40.1515  -20.3894 C   0  0  0  0  0  0  0  0  0  0  0  0
  -19.0355   41.5116  -19.9587 C   0  0  0  0  0  0  0  0  0  0  0  0
  -18.9854   42.3429  -21.0704 F   0  0  0  0  0  0  0  0  0  0  0  0
  -18.1680   42.0477  -19.0386 F   0  0  0  0  0  0  0  0  0  0  0  0
  -20.3547   41.5392  -19.5403 F   0  0  0  0  0  0  0  0  0  0  0  0
  -17.6199   39.4818  -19.8178 C   0  0  0  0  0  0  0  0  0  0  0  0
  -17.2894   38.2604  -20.1952 N   0  0  0  0  0  0  0  0  0  0  0  0
  -19.8606   35.3953  -21.7874 C   0  0  0  0  0  0  0  0  0  0  0  0
  -20.7609   34.5971  -22.3901 N   0  0  0  0  0  0  0  0  0  0  0  0
  1  2  3  0
  2  3  1  0
  3  4  2  0
  4  5  1  0
  5  6  2  0
  6  7  1  0
  7  8  1  0
  8  9  2  0
  9 10  1  0
 10 11  1  0
 11 12  1  0
 13 12  1  1
 13 14  1  0
 14 15  1  0
 15 16  1  0
 16 17  1  0
 17 18  1  0
 10 19  2  0
 19 20  1  0
 20 21  1  0
 20 22  1  0
 20 23  1  0
 19 24  1  0
 24 25  2  0
  6 26  1  0
 26 27  2  0
 27  3  1  0
 25  8  1  0
 18 13  1  0
M  END
$$$$
