
     RDKit          3D

 29 29  0  0  0  0  0  0  0  0999 V2000
  -12.4179   43.3367  -17.0661 Cl  0  0  0  0  0  0  0  0  0  0  0  0
  -12.4240   43.3413  -17.0707 Cl  0  0  0  0  0  0  0  0  0  0  0  0
  -16.1283   42.8832  -17.9367 O   0  0  0  0  0  0  0  0  0  0  0  0
  -16.0319   43.2324  -19.4238 S   0  0  0  0  0  6  0  0  0  0  0  0
  -16.9268   42.1899  -20.0983 O   0  0  0  0  0  0  0  0  0  0  0  0
  -14.4575   42.9485  -19.9322 N   0  0  0  0  0  0  0  0  0  0  0  0
  -13.5237   42.6039  -18.9364 C   0  0  0  0  0  0  0  0  0  0  0  0
  -12.1291   42.3580  -19.5187 C   0  0  0  0  0  0  0  0  0  0  0  0
  -11.2156   42.0139  -18.4814 N   0  0  0  0  0  0  0  0  0  0  0  0
  -10.8966   43.0647  -17.5597 C   0  0  0  0  0  0  0  0  0  0  0  0
   -9.9027   42.4736  -16.5887 C   0  0  0  0  0  0  0  0  0  0  0  0
  -10.1326   42.4081  -15.2949 C   0  0  0  0  0  0  0  0  0  0  0  0
   -9.2455   41.8624  -14.2913 C   0  0  0  0  0  0  0  0  0  0  0  0
   -9.6336   41.8706  -12.9619 C   0  0  0  0  0  0  0  0  0  0  0  0
   -8.7762   41.3474  -12.0252 C   0  0  0  0  0  0  0  0  0  0  0  0
   -7.5456   40.8162  -12.3665 C   0  0  0  0  0  0  0  0  0  0  0  0
   -6.3787   40.0975  -11.0418 Br  0  0  0  0  0  0  0  0  0  0  0  0
   -7.1820   40.8195  -13.6975 C   0  0  0  0  0  0  0  0  0  0  0  0
   -8.0331   41.3408  -14.6427 C   0  0  0  0  0  0  0  0  0  0  0  0
  -16.6598   44.8274  -19.6894 C   0  0  0  0  0  0  0  0  0  0  0  0
  -17.6363   44.9786  -20.6884 C   0  0  0  0  0  0  0  0  0  0  0  0
  -18.1439   46.2157  -21.0008 C   0  0  0  0  0  0  0  0  0  0  0  0
  -17.7284   47.3492  -20.3613 C   0  0  0  0  0  0  0  0  0  0  0  0
  -16.7739   47.2220  -19.3789 C   0  0  0  0  0  0  0  0  0  0  0  0
  -16.3404   48.3389  -18.6973 C   0  0  0  0  0  0  0  0  0  0  0  0
  -15.4226   48.1909  -17.7308 N   0  0  0  0  0  0  0  0  0  0  0  0
  -14.9141   46.9948  -17.4058 C   0  0  0  0  0  0  0  0  0  0  0  0
  -15.3324   45.8819  -18.0707 C   0  0  0  0  0  0  0  0  0  0  0  0
  -16.2591   45.9584  -19.0633 C   0  0  0  0  0  0  0  0  0  0  0  0
  3  4  2  0
  4  5  2  0
  4  6  1  0
  6  7  1  0
  7  8  1  0
  8  9  1  0
  9 10  1  0
 10 11  1  0
 11 12  2  0
 12 13  1  0
 13 14  2  0
 14 15  1  0
 15 16  2  0
 16 17  1  0
 16 18  1  0
 18 19  2  0
  4 20  1  0
 20 21  2  0
 21 22  1  0
 22 23  2  0
 23 24  1  0
 24 25  2  0
 25 26  1  0
 26 27  2  0
 27 28  1  0
 28 29  2  0
 19 13  1  0
 29 20  1  0
 29 24  1  0
M  END
$$$$
