
     RDKit          3D

 32 34  0  0  0  0  0  0  0  0999 V2000
  -30.7812   20.5437  -23.6398 N   0  0  0  0  0  0  0  0  0  0  0  0
  -30.2115   19.2983  -23.2808 C   0  0  0  0  0  0  0  0  0  0  0  0
  -29.9456   18.3476  -24.2226 N   0  0  0  0  0  0  0  0  0  0  0  0
  -29.4108   17.1777  -23.8974 C   0  0  0  0  0  0  0  0  0  0  0  0
  -29.1276   16.1699  -24.8826 N   0  0  0  0  0  0  0  0  0  0  0  0
  -29.1058   16.8863  -22.5871 C   0  0  0  0  0  0  0  0  0  0  0  0
  -28.5551   15.6820  -22.2580 N   0  0  0  0  0  0  0  0  0  0  0  0
  -28.2589   15.4027  -20.9814 C   0  0  0  0  0  0  0  0  0  0  0  0
  -27.6634   14.1063  -20.6255 C   0  0  0  0  0  0  0  0  0  0  0  0
  -28.2700   13.6588  -19.3815 N   0  0  0  0  0  0  0  0  0  0  0  0
  -29.3197   12.6635  -19.3998 C   0  0  0  0  0  0  0  0  0  0  0  0
  -29.4695   11.8345  -20.4906 C   0  0  0  0  0  0  0  0  0  0  0  0
  -30.4641   10.8947  -20.5000 C   0  0  0  0  0  0  0  0  0  0  0  0
  -31.3578   10.7249  -19.4400 C   0  0  0  0  0  0  0  0  0  0  0  0
  -32.3920    9.7231  -19.4709 C   0  0  0  0  0  0  0  0  0  0  0  0
  -33.1384    9.5584  -20.4978 O   0  0  0  0  0  0  0  0  0  0  0  0
  -32.6074    8.8870  -18.3481 N   0  0  0  0  0  0  0  0  0  0  0  0
  -33.7123    7.9269  -18.3330 C   0  0  0  0  0  0  0  0  0  0  0  0
  -34.8480    8.5679  -19.1111 C   0  0  0  0  0  0  0  0  0  0  0  0
  -35.9720    7.5736  -19.2103 C   0  0  0  0  0  0  0  0  0  0  0  0
  -36.8788    7.8421  -20.3228 C   0  0  0  0  0  0  0  0  0  0  0  0
  -37.9336    7.1459  -20.4731 O   0  0  0  0  0  0  0  0  0  0  0  0
  -36.6693    8.8306  -21.2604 O   0  0  0  0  0  0  0  0  0  0  0  0
  -34.1292    7.7499  -16.9252 C   0  0  0  0  0  0  0  0  0  0  0  0
  -35.0832    6.9810  -16.6694 O   0  0  0  0  0  0  0  0  0  0  0  0
  -33.5026    8.4043  -15.8835 O   0  0  0  0  0  0  0  0  0  0  0  0
  -31.1659   11.5754  -18.3781 C   0  0  0  0  0  0  0  0  0  0  0  0
  -30.1746   12.5282  -18.3433 C   0  0  0  0  0  0  0  0  0  0  0  0
  -28.5120   16.3338  -20.0054 C   0  0  0  0  0  0  0  0  0  0  0  0
  -29.0633   17.5456  -20.3178 N   0  0  0  0  0  0  0  0  0  0  0  0
  -29.3628   17.8270  -21.6108 C   0  0  0  0  0  0  0  0  0  0  0  0
  -29.9015   18.9825  -22.0077 N   0  0  0  0  0  0  0  0  0  0  0  0
  1  2  1  0
  2  3  2  0
  3  4  1  0
  4  5  1  0
  4  6  2  0
  6  7  1  0
  7  8  2  0
  8  9  1  0
  9 10  1  0
 10 11  1  0
 11 12  2  0
 12 13  1  0
 13 14  2  0
 14 15  1  0
 15 16  2  0
 15 17  1  0
 17 18  1  0
 18 19  1  0
 19 20  1  0
 20 21  1  0
 21 22  2  0
 21 23  1  0
 18 24  1  0
 24 25  2  0
 24 26  1  0
 14 27  1  0
 27 28  2  0
  8 29  1  0
 29 30  2  0
 30 31  1  0
 31 32  2  0
 32  2  1  0
 31  6  1  0
 28 11  1  0
M  END
$$$$
