
     RDKit          3D

 31 34  0  0  0  0  0  0  0  0999 V2000
  -18.3854   34.9920  -21.0934 C   0  0  0  0  0  0  0  0  0  0  0  0
  -19.7807   35.5738  -21.2299 C   0  0  0  0  0  0  0  0  0  0  0  0
  -20.6801   34.3778  -21.5626 C   0  0  0  0  0  0  0  0  0  0  0  0
  -20.1598   36.1718  -19.8990 C   0  0  0  0  0  0  0  0  0  0  0  0
  -19.8193   36.5193  -22.3135 N   0  0  0  0  0  0  0  0  0  0  0  0
  -19.0010   37.6402  -22.5585 C   0  0  0  0  0  0  0  0  0  0  0  0
  -18.0562   37.9219  -21.7430 O   0  0  0  0  0  0  0  0  0  0  0  0
  -19.3173   38.3854  -23.7420 C   0  0  0  0  0  0  0  0  0  0  0  0
  -18.5663   39.5508  -24.1251 N   0  0  0  0  0  0  0  0  0  0  0  0
  -18.2219   40.5880  -23.2425 C   0  0  0  0  0  0  0  0  0  0  0  0
  -18.5521   40.6005  -21.9047 C   0  0  0  0  0  0  0  0  0  0  0  0
  -18.1764   41.6263  -21.0517 C   0  0  0  0  0  0  0  0  0  0  0  0
  -17.4408   42.6935  -21.5288 C   0  0  0  0  0  0  0  0  0  0  0  0
  -17.0444   43.7654  -20.6868 N   0  0  0  0  0  0  0  0  0  0  0  0
  -16.7722   45.1069  -21.1442 C   0  0  0  0  0  0  0  0  0  0  0  0
  -15.7319   45.7918  -20.2781 C   0  0  0  0  0  0  0  0  0  0  0  0
  -16.1735   45.8477  -18.8313 C   0  0  0  0  0  0  0  0  0  0  0  0
  -17.2312   44.8149  -18.5297 C   0  0  0  0  0  0  0  0  0  0  0  0
  -16.9151   43.5235  -19.2675 C   0  0  0  0  0  0  0  0  0  0  0  0
  -17.1043   42.6907  -22.8737 C   0  0  0  0  0  0  0  0  0  0  0  0
  -17.4893   41.6541  -23.7164 C   0  0  0  0  0  0  0  0  0  0  0  0
  -20.3093   37.9465  -24.4434 C   0  0  0  0  0  0  0  0  0  0  0  0
  -20.8986   38.4501  -25.6881 C   0  0  0  0  0  0  0  0  0  0  0  0
  -20.4333   37.9209  -26.8866 C   0  0  0  0  0  0  0  0  0  0  0  0
  -20.9638   38.3819  -28.0664 C   0  0  0  0  0  0  0  0  0  0  0  0
  -21.9442   39.3545  -28.0909 C   0  0  0  0  0  0  0  0  0  0  0  0
  -22.4188   39.8924  -26.9062 C   0  0  0  0  0  0  0  0  0  0  0  0
  -21.8805   39.4241  -25.7146 C   0  0  0  0  0  0  0  0  0  0  0  0
  -20.9335   36.4993  -23.6341 S   0  0  0  0  0  6  0  0  0  0  0  0
  -20.7933   35.2857  -24.4739 O   0  0  0  0  0  0  0  0  0  0  0  0
  -22.3230   36.7067  -23.1249 O   0  0  0  0  0  0  0  0  0  0  0  0
  1  2  1  0
  2  3  1  0
  2  4  1  0
  2  5  1  0
  5  6  1  0
  6  7  2  0
  6  8  1  0
  8  9  1  0
  9 10  1  0
 10 11  2  0
 11 12  1  0
 12 13  2  0
 13 14  1  0
 14 15  1  0
 15 16  1  0
 16 17  1  0
 17 18  1  0
 18 19  1  0
 13 20  1  0
 20 21  2  0
  8 22  2  0
 22 23  1  0
 23 24  2  0
 24 25  1  0
 25 26  2  0
 26 27  1  0
 27 28  2  0
 22 29  1  0
 29 30  2  0
 29 31  2  0
 29  5  1  0
 21 10  1  0
 28 23  1  0
 19 14  1  0
M  END
$$$$
