
     RDKit          3D

 23 26  0  0  0  0  0  0  0  0999 V2000
  -22.7460   36.1568  -21.6456 N   0  0  0  0  0  0  0  0  0  0  0  0
  -22.0529   36.9507  -21.1362 C   0  0  0  0  0  0  0  0  0  0  0  0
  -21.1714   37.9299  -20.4815 C   0  0  0  0  0  0  0  0  0  0  0  0
  -20.0467   38.3542  -21.3832 C   0  0  2  0  0  0  0  0  0  0  0  0
  -19.2007   37.1787  -21.8281 C   0  0  0  0  0  0  0  0  0  0  0  0
  -19.7658   36.5671  -23.0637 C   0  0  0  0  0  0  0  0  0  0  0  0
  -19.1615   37.4319  -24.1553 C   0  0  0  0  0  0  0  0  0  0  0  0
  -17.6969   37.3767  -23.7163 C   0  0  0  0  0  0  0  0  0  0  0  0
  -17.8176   37.6115  -22.2410 C   0  0  0  0  0  0  0  0  0  0  0  0
  -19.2414   39.3619  -20.7124 N   0  0  0  0  0  0  0  0  0  0  0  0
  -19.1739   40.6748  -21.0325 C   0  0  0  0  0  0  0  0  0  0  0  0
  -18.3092   41.3285  -20.1806 C   0  0  0  0  0  0  0  0  0  0  0  0
  -17.9887   42.7498  -20.2250 C   0  0  0  0  0  0  0  0  0  0  0  0
  -17.1856   43.3374  -19.3209 N   0  0  0  0  0  0  0  0  0  0  0  0
  -16.8756   44.6400  -19.3383 C   0  0  0  0  0  0  0  0  0  0  0  0
  -17.3828   45.4253  -20.3034 N   0  0  0  0  0  0  0  0  0  0  0  0
  -18.2050   44.8914  -21.2520 C   0  0  0  0  0  0  0  0  0  0  0  0
  -18.8331   45.4503  -22.3054 N   0  0  0  0  0  0  0  0  0  0  0  0
  -19.5363   44.5051  -22.9498 C   0  0  0  0  0  0  0  0  0  0  0  0
  -19.3580   43.3090  -22.2975 C   0  0  0  0  0  0  0  0  0  0  0  0
  -18.5119   43.5566  -21.2193 C   0  0  0  0  0  0  0  0  0  0  0  0
  -17.8504   40.3508  -19.3228 C   0  0  0  0  0  0  0  0  0  0  0  0
  -18.4338   39.1947  -19.6785 N   0  0  0  0  0  0  0  0  0  0  0  0
  1  2  3  0
  2  3  1  0
  4  3  1  1
  4  5  1  0
  5  6  1  0
  6  7  1  0
  7  8  1  0
  8  9  1  0
  4 10  1  0
 10 11  1  0
 11 12  2  0
 12 13  1  0
 13 14  2  0
 14 15  1  0
 15 16  2  0
 16 17  1  0
 17 18  1  0
 18 19  1  0
 19 20  2  0
 20 21  1  0
 12 22  1  0
 22 23  2  0
  9  5  1  0
 23 10  1  0
 21 13  1  0
 21 17  2  0
M  END
$$$$
