
     RDKit          3D

 28 30  0  0  0  0  0  0  0  0999 V2000
  -18.8632   38.4163  -22.1938 O   0  0  0  0  0  0  0  0  0  0  0  0
  -19.2734   39.5175  -22.6051 C   0  0  0  0  0  0  0  0  0  0  0  0
  -18.4076   40.6416  -22.5272 N   0  0  0  0  0  0  0  0  0  0  0  0
  -17.0651   40.4727  -22.3501 O   0  0  0  0  0  0  0  0  0  0  0  0
  -20.6508   39.7155  -23.1843 C   0  0  0  0  0  0  0  0  0  0  0  0
  -21.5654   39.0925  -22.1653 C   0  0  0  0  0  0  0  0  0  0  0  0
  -20.7584   38.4177  -20.7649 S   0  0  0  0  0  6  0  0  0  0  0  0
  -21.6707   38.1338  -19.6202 O   0  0  0  0  0  0  0  0  0  0  0  0
  -19.9260   37.2116  -21.0985 O   0  0  0  0  0  0  0  0  0  0  0  0
  -19.6161   39.6382  -20.1927 C   0  0  0  0  0  0  0  0  0  0  0  0
  -18.2736   39.5171  -20.4863 C   0  0  0  0  0  0  0  0  0  0  0  0
  -17.3483   40.4451  -20.0604 C   0  0  0  0  0  0  0  0  0  0  0  0
  -17.7622   41.5300  -19.3192 C   0  0  0  0  0  0  0  0  0  0  0  0
  -16.8309   42.4800  -18.8806 O   0  0  0  0  0  0  0  0  0  0  0  0
  -16.6988   43.6783  -19.5721 C   0  0  0  0  0  0  0  0  0  0  0  0
  -15.4627   44.2107  -19.8941 C   0  0  0  0  0  0  0  0  0  0  0  0
  -15.3566   45.4022  -20.5814 C   0  0  0  0  0  0  0  0  0  0  0  0
  -16.4968   46.0792  -20.9569 C   0  0  0  0  0  0  0  0  0  0  0  0
  -16.3525   47.6030  -21.8359 Cl  0  0  0  0  0  0  0  0  0  0  0  0
  -17.7377   45.5810  -20.6545 C   0  0  0  0  0  0  0  0  0  0  0  0
  -17.8129   44.3867  -19.9660 C   0  0  0  0  0  0  0  0  0  0  0  0
  -19.0843   41.6605  -19.0230 C   0  0  0  0  0  0  0  0  0  0  0  0
  -20.0183   40.7199  -19.4553 C   0  0  0  0  0  0  0  0  0  0  0  0
  -20.8580   41.1966  -23.2532 C   0  0  0  0  0  0  0  0  0  0  0  0
  -21.5569   41.6985  -24.4519 C   0  0  0  0  0  0  0  0  0  0  0  0
  -22.0369   40.7199  -25.3084 O   0  0  0  0  0  0  0  0  0  0  0  0
  -20.9522   39.9309  -25.6745 C   0  0  0  0  0  0  0  0  0  0  0  0
  -20.6625   39.0223  -24.5036 C   0  0  0  0  0  0  0  0  0  0  0  0
  1  2  2  0
  2  3  1  0
  3  4  1  0
  2  5  1  0
  5  6  1  0
  6  7  1  0
  7  8  2  0
  7  9  2  0
  7 10  1  0
 10 11  2  0
 11 12  1  0
 12 13  2  0
 13 14  1  0
 14 15  1  0
 15 16  2  0
 16 17  1  0
 17 18  2  0
 18 19  1  0
 18 20  1  0
 20 21  2  0
 13 22  1  0
 22 23  2  0
  5 24  1  0
 24 25  1  0
 25 26  1  0
 26 27  1  0
 27 28  1  0
 28  5  1  0
 23 10  1  0
 21 15  1  0
M  END
$$$$
