
     RDKit          3D

 37 40  0  0  0  0  0  0  0  0999 V2000
  -14.5469   11.6088  -25.7847 C   0  0  0  0  0  0  0  0  0  0  0  0
  -14.1409   11.7901  -27.1267 O   0  0  0  0  0  0  0  0  0  0  0  0
  -14.8212   12.6364  -27.9786 C   0  0  0  0  0  0  0  0  0  0  0  0
  -14.5654   12.6403  -29.3273 C   0  0  0  0  0  0  0  0  0  0  0  0
  -15.2616   13.4930  -30.1323 C   0  0  0  0  0  0  0  0  0  0  0  0
  -16.2084   14.3390  -29.6020 C   0  0  0  0  0  0  0  0  0  0  0  0
  -17.0031   15.2964  -30.4110 C   0  0  2  0  0  0  0  0  0  0  0  0
  -18.1354   15.5985  -29.6129 O   0  0  0  0  0  0  0  0  0  0  0  0
  -17.5471   14.5399  -31.5950 C   0  0  0  0  0  0  0  0  0  0  0  0
  -18.2486   15.4965  -32.4971 C   0  0  0  0  0  0  0  0  0  0  0  0
  -17.3178   16.5243  -33.0425 C   0  0  1  0  0  0  0  0  0  0  0  0
  -18.0937   17.6615  -33.4848 N   0  0  0  0  0  0  0  0  0  0  0  0
  -19.4624   17.3960  -33.7424 C   0  0  0  0  0  0  0  0  0  0  0  0
  -19.7098   17.6274  -35.2164 C   0  0  0  0  0  0  0  0  0  0  0  0
  -18.3786   17.9207  -35.8241 C   0  0  1  0  0  0  0  0  0  0  0  0
  -18.3975   19.0844  -36.7002 N   0  0  0  0  0  0  0  0  0  0  0  0
  -18.4521   18.9711  -38.1087 C   0  0  0  0  0  0  0  0  0  0  0  0
  -17.3084   18.8439  -38.6801 O   0  0  0  0  0  0  0  0  0  0  0  0
  -19.6775   18.9924  -38.9282 C   0  0  0  0  0  0  0  0  0  0  0  0
  -20.1340   20.3672  -39.0852 N   0  0  0  0  0  0  0  0  0  0  0  0
  -19.5025   21.2241  -40.0101 C   0  0  0  0  0  0  0  0  0  0  0  0
  -18.2715   21.5013  -39.8321 O   0  0  0  0  0  0  0  0  0  0  0  0
  -20.1822   21.8020  -41.1473 C   0  0  0  0  0  0  0  0  0  0  0  0
  -20.3202   21.0655  -42.3316 C   0  0  0  0  0  0  0  0  0  0  0  0
  -20.9494   21.5444  -43.4454 C   0  0  0  0  0  0  0  0  0  0  0  0
  -21.4733   22.8142  -43.3998 C   0  0  0  0  0  0  0  0  0  0  0  0
  -21.3721   23.5858  -42.2726 C   0  0  0  0  0  0  0  0  0  0  0  0
  -21.9420   24.9486  -42.2435 C   0  0  0  0  0  0  0  0  0  0  0  0
  -21.2095   25.8170  -43.0355 F   0  0  0  0  0  0  0  0  0  0  0  0
  -23.2627   24.8602  -42.6952 F   0  0  0  0  0  0  0  0  0  0  0  0
  -21.9288   25.4744  -40.9481 F   0  0  0  0  0  0  0  0  0  0  0  0
  -20.7278   23.0617  -41.1698 C   0  0  0  0  0  0  0  0  0  0  0  0
  -17.4835   18.2283  -34.6439 C   0  0  0  0  0  0  0  0  0  0  0  0
  -16.1603   16.8719  -32.1789 C   0  0  0  0  0  0  0  0  0  0  0  0
  -16.3155   16.5692  -30.7326 C   0  0  0  0  0  0  0  0  0  0  0  0
  -16.4254   14.2950  -28.2459 C   0  0  0  0  0  0  0  0  0  0  0  0
  -15.7436   13.4620  -27.4693 N   0  0  0  0  0  0  0  0  0  0  0  0
  1  2  1  0
  2  3  1  0
  3  4  2  0
  4  5  1  0
  5  6  2  0
  6  7  1  0
  7  8  1  1
  7  9  1  0
  9 10  1  0
 10 11  1  0
 11 12  1  1
 12 13  1  0
 13 14  1  0
 14 15  1  0
 15 16  1  6
 16 17  1  0
 17 18  2  0
 17 19  1  0
 19 20  1  0
 20 21  1  0
 21 22  2  0
 21 23  1  0
 23 24  2  0
 24 25  1  0
 25 26  2  0
 26 27  1  0
 27 28  1  0
 28 29  1  0
 28 30  1  0
 28 31  1  0
 27 32  2  0
 15 33  1  0
 11 34  1  0
 34 35  1  0
  6 36  1  0
 36 37  2  0
 37  3  1  0
 35  7  1  0
 33 12  1  0
 32 23  1  0
M  END
$$$$
