
     RDKit          3D

 14 15  0  0  0  0  0  0  0  0999 V2000
  -19.9709   40.7734  -23.1489 C   0  0  0  0  0  0  0  0  0  0  0  0
  -19.6702   39.3650  -22.6960 C   0  0  0  0  0  0  0  0  0  0  0  0
  -18.6769   39.2520  -21.8887 N   0  0  0  0  0  0  0  0  0  0  0  0
  -18.1799   37.7407  -21.2640 S   0  0  0  0  0  6  0  0  0  0  0  0
  -18.4215   37.8034  -19.7595 O   0  0  0  0  0  0  0  0  0  0  0  0
  -16.7401   37.4462  -21.5476 O   0  0  0  0  0  0  0  0  0  0  0  0
  -19.2373   36.5152  -21.9192 C   0  0  0  0  0  0  0  0  0  0  0  0
  -19.0673   35.1870  -21.5825 C   0  0  0  0  0  0  0  0  0  0  0  0
  -19.8936   34.2089  -22.0914 C   0  0  0  0  0  0  0  0  0  0  0  0
  -19.6468   32.5330  -21.6408 Cl  0  0  0  0  0  0  0  0  0  0  0  0
  -20.8996   34.5965  -22.9505 C   0  0  0  0  0  0  0  0  0  0  0  0
  -21.0711   35.9146  -23.2869 C   0  0  0  0  0  0  0  0  0  0  0  0
  -20.2303   36.9175  -22.7702 C   0  0  0  0  0  0  0  0  0  0  0  0
  -20.4544   38.2776  -23.1548 N   0  0  0  0  0  0  0  0  0  0  0  0
  1  2  1  0
  2  3  2  0
  3  4  1  0
  4  5  2  0
  4  6  2  0
  4  7  1  0
  7  8  2  0
  8  9  1  0
  9 10  1  0
  9 11  2  0
 11 12  1  0
 12 13  2  0
 13 14  1  0
 14  2  1  0
 13  7  1  0
M  END
$$$$
