
     RDKit          3D

 19 20  0  0  0  0  0  0  0  0999 V2000
  -12.8492   13.4735  -27.4823 C   0  0  0  0  0  0  0  0  0  0  0  0
  -13.6161   12.6979  -28.5296 C   0  0  0  0  0  0  0  0  0  0  0  0
  -13.9935   11.3674  -27.9600 C   0  0  0  0  0  0  0  0  0  0  0  0
  -14.7849   13.5070  -28.9405 C   0  0  0  0  0  0  0  0  0  0  0  0
  -14.8724   13.8705  -30.2684 C   0  0  0  0  0  0  0  0  0  0  0  0
  -13.8807   13.4771  -31.1740 O   0  0  0  0  0  0  0  0  0  0  0  0
  -15.9466   14.6240  -30.6890 C   0  0  0  0  0  0  0  0  0  0  0  0
  -16.9605   15.0414  -29.8281 C   0  0  0  0  0  0  0  0  0  0  0  0
  -18.0557   15.8371  -30.3738 C   0  0  0  0  0  0  0  0  0  0  0  0
  -19.2060   16.0412  -29.7689 C   0  0  0  0  0  0  0  0  0  0  0  0
  -20.2912   16.8699  -30.2837 C   0  0  0  0  0  0  0  0  0  0  0  0
  -20.6104   16.7658  -31.6269 C   0  0  0  0  0  0  0  0  0  0  0  0
  -21.6276   17.5309  -32.1494 C   0  0  0  0  0  0  0  0  0  0  0  0
  -22.3491   18.4034  -31.3900 C   0  0  0  0  0  0  0  0  0  0  0  0
  -22.0410   18.5134  -30.0609 C   0  0  0  0  0  0  0  0  0  0  0  0
  -21.0149   17.7453  -29.5210 C   0  0  0  0  0  0  0  0  0  0  0  0
  -16.8704   14.6799  -28.5156 C   0  0  0  0  0  0  0  0  0  0  0  0
  -15.7799   13.9147  -28.0878 C   0  0  0  0  0  0  0  0  0  0  0  0
  -15.6772   13.5409  -26.7560 O   0  0  0  0  0  0  0  0  0  0  0  0
  1  2  1  0
  2  3  1  0
  2  4  1  0
  4  5  2  0
  5  6  1  0
  5  7  1  0
  7  8  2  0
  8  9  1  0
  9 10  2  0
 10 11  1  0
 11 12  2  0
 12 13  1  0
 13 14  2  0
 14 15  1  0
 15 16  2  0
  8 17  1  0
 17 18  2  0
 18 19  1  0
 18  4  1  0
 16 11  1  0
M  END
$$$$
