
     RDKit          3D

 31 34  0  0  0  0  0  0  0  0999 V2000
  -20.7746   41.9080  -22.4043 C   0  0  0  0  0  0  0  0  0  0  0  0
  -19.3589   41.7043  -22.8236 C   0  0  0  0  0  0  0  0  0  0  0  0
  -18.4135   42.2441  -21.9001 N   0  0  0  0  0  0  0  0  0  0  0  0
  -17.8937   41.5566  -20.8454 C   0  0  0  0  0  0  0  0  0  0  0  0
  -18.1686   40.2020  -20.4524 C   0  0  0  0  0  0  0  0  0  0  0  0
  -18.5454   39.1874  -21.2235 N   0  0  0  0  0  0  0  0  0  0  0  0
  -18.6911   38.1032  -20.4908 O   0  0  0  0  0  0  0  0  0  0  0  0
  -18.4126   38.3892  -19.2315 N   0  0  0  0  0  0  0  0  0  0  0  0
  -18.0840   39.6938  -19.1842 C   0  0  0  0  0  0  0  0  0  0  0  0
  -17.7177   40.3915  -18.0078 N   0  0  0  0  0  0  0  0  0  0  0  0
  -17.0388   42.4132  -20.2060 N   0  0  0  0  0  0  0  0  0  0  0  0
  -17.0274   43.5956  -20.8444 C   0  0  0  0  0  0  0  0  0  0  0  0
  -16.3459   44.7691  -20.6067 C   0  0  0  0  0  0  0  0  0  0  0  0
  -15.4491   44.8611  -19.4966 C   0  0  0  0  0  0  0  0  0  0  0  0
  -14.6766   44.9312  -18.5716 C   0  0  0  0  0  0  0  0  0  0  0  0
  -13.7372   44.9988  -17.4472 C   0  0  0  0  0  0  0  0  0  0  0  0
  -13.9194   43.8035  -16.5371 C   0  0  0  0  0  0  0  0  0  0  0  0
  -12.3456   45.1161  -17.9786 C   0  0  0  0  0  0  0  0  0  0  0  0
  -13.9902   46.1456  -16.6621 O   0  0  0  0  0  0  0  0  0  0  0  0
  -16.5668   45.7850  -21.4552 N   0  0  0  0  0  0  0  0  0  0  0  0
  -17.4063   45.6898  -22.4940 C   0  0  0  0  0  0  0  0  0  0  0  0
  -18.1212   44.5441  -22.7916 C   0  0  0  0  0  0  0  0  0  0  0  0
  -18.9676   44.3916  -23.8005 O   0  0  0  0  0  0  0  0  0  0  0  0
  -19.4498   44.9325  -24.9141 C   0  0  0  0  0  0  0  0  0  0  0  0
  -20.8337   44.7058  -25.3795 C   0  0  1  0  0  0  0  0  0  0  0  0
  -21.9452   44.7042  -24.4107 C   0  0  0  0  0  0  0  0  0  0  0  0
  -23.2661   44.4955  -25.1302 C   0  0  0  0  0  0  0  0  0  0  0  0
  -23.0132   44.2012  -26.5798 C   0  0  0  0  0  0  0  0  0  0  0  0
  -22.2187   45.1755  -27.2580 N   0  0  0  0  0  0  0  0  0  0  0  0
  -21.1788   45.7660  -26.4351 C   0  0  0  0  0  0  0  0  0  0  0  0
  -17.8963   43.4692  -21.9048 C   0  0  0  0  0  0  0  0  0  0  0  0
  1  2  1  0
  2  3  1  0
  3  4  1  0
  4  5  1  0
  5  6  2  0
  6  7  1  0
  7  8  1  0
  8  9  2  0
  9 10  1  0
  4 11  2  0
 11 12  1  0
 12 13  2  0
 13 14  1  0
 14 15  3  0
 15 16  1  0
 16 17  1  0
 16 18  1  0
 16 19  1  0
 13 20  1  0
 20 21  2  0
 21 22  1  0
 22 23  1  0
 23 24  1  0
 25 24  1  1
 25 26  1  0
 26 27  1  0
 27 28  1  0
 28 29  1  0
 29 30  1  0
 22 31  2  0
 31  3  1  0
  9  5  1  0
 31 12  1  0
 30 25  1  0
M  END
$$$$
