
     RDKit          3D

 35 37  0  0  0  0  0  0  0  0999 V2000
  -16.5391   19.3318  -39.7077 O   0  0  0  0  0  0  0  0  0  0  0  0
  -16.0200   18.2039  -39.5417 C   0  0  0  0  0  0  0  0  0  0  0  0
  -16.3644   17.4951  -38.3590 N   0  0  0  0  0  0  0  0  0  0  0  0
  -17.3135   18.0341  -37.4067 C   0  0  0  0  0  0  0  0  0  0  0  0
  -17.8590   19.3036  -37.7479 N   0  0  0  0  0  0  0  0  0  0  0  0
  -18.9459   19.4709  -38.6148 C   0  0  0  0  0  0  0  0  0  0  0  0
  -19.7097   18.0932  -39.1510 S   0  0  0  0  0  0  0  0  0  0  0  0
  -19.4224   20.7149  -39.0579 N   0  0  0  0  0  0  0  0  0  0  0  0
  -20.7909   21.0668  -38.8612 C   0  0  0  0  0  0  0  0  0  0  0  0
  -21.1387   22.3271  -38.3831 C   0  0  0  0  0  0  0  0  0  0  0  0
  -22.4574   22.6565  -38.1759 C   0  0  0  0  0  0  0  0  0  0  0  0
  -23.4840   21.7710  -38.4245 C   0  0  0  0  0  0  0  0  0  0  0  0
  -24.7963   22.0873  -38.2271 F   0  0  0  0  0  0  0  0  0  0  0  0
  -23.1426   20.5150  -38.9013 C   0  0  0  0  0  0  0  0  0  0  0  0
  -24.2007   19.5950  -39.1637 N   0  0  0  0  0  4  0  0  0  0  0  0
  -24.7539   19.0090  -38.2197 O   0  0  0  0  0  0  0  0  0  0  0  0
  -24.5810   19.3690  -40.4661 O   0  0  0  0  0  1  0  0  0  0  0  0
  -21.8048   20.1818  -39.1130 C   0  0  0  0  0  0  0  0  0  0  0  0
  -16.7920   17.9998  -35.9727 C   0  0  0  0  0  0  0  0  0  0  0  0
  -18.1078   18.4865  -34.8476 Cl  0  0  0  0  0  0  0  0  0  0  0  0
  -15.3861   19.0554  -35.7816 Cl  0  0  0  0  0  0  0  0  0  0  0  0
  -16.3124   16.3552  -35.5073 Cl  0  0  0  0  0  0  0  0  0  0  0  0
  -15.0727   17.6221  -40.5462 C   0  0  0  0  0  0  0  0  0  0  0  0
  -15.0786   18.3765  -41.8140 C   0  0  0  0  0  0  0  0  0  0  0  0
  -15.8439   17.9286  -42.8613 C   0  0  0  0  0  0  0  0  0  0  0  0
  -15.9058   18.5744  -44.0743 C   0  0  0  0  0  0  0  0  0  0  0  0
  -15.1814   19.7243  -44.2886 C   0  0  0  0  0  0  0  0  0  0  0  0
  -14.4061   20.1813  -43.2350 C   0  0  0  0  0  0  0  0  0  0  0  0
  -14.3532   19.5207  -42.0119 C   0  0  0  0  0  0  0  0  0  0  0  0
  -13.6874   17.5978  -39.9585 C   0  0  0  0  0  0  0  0  0  0  0  0
  -12.8129   16.5922  -40.2493 C   0  0  0  0  0  0  0  0  0  0  0  0
  -11.5500   16.6832  -39.6764 C   0  0  0  0  0  0  0  0  0  0  0  0
  -11.1639   17.7139  -38.8570 C   0  0  0  0  0  0  0  0  0  0  0  0
  -12.1068   18.7122  -38.5964 C   0  0  0  0  0  0  0  0  0  0  0  0
  -13.3633   18.6543  -39.1443 C   0  0  0  0  0  0  0  0  0  0  0  0
  1  2  2  0
  2  3  1  0
  3  4  1  0
  4  5  1  0
  5  6  1  0
  6  7  2  0
  6  8  1  0
  8  9  1  0
  9 10  2  0
 10 11  1  0
 11 12  2  0
 12 13  1  0
 12 14  1  0
 14 15  1  0
 15 16  2  0
 15 17  1  0
 14 18  2  0
  4 19  1  0
 19 20  1  0
 19 21  1  0
 19 22  1  0
  2 23  1  0
 23 24  1  0
 24 25  2  0
 25 26  1  0
 26 27  2  0
 27 28  1  0
 28 29  2  0
 23 30  1  0
 30 31  2  0
 31 32  1  0
 32 33  2  0
 33 34  1  0
 34 35  2  0
 18  9  1  0
 29 24  1  0
 35 30  1  0
M  CHG  2  15   1  17  -1
M  END
$$$$
