
     RDKit          3D

 23 24  0  0  0  0  0  0  0  0999 V2000
  -22.0213   36.7431  -20.6096 C   0  0  0  0  0  0  0  0  0  0  0  0
  -21.6865   37.7698  -21.4926 O   0  0  0  0  0  0  0  0  0  0  0  0
  -20.6141   38.6302  -21.2866 C   0  0  0  0  0  0  0  0  0  0  0  0
  -20.1025   38.9049  -20.0350 C   0  0  0  0  0  0  0  0  0  0  0  0
  -19.0207   39.7811  -19.8977 C   0  0  0  0  0  0  0  0  0  0  0  0
  -18.4465   40.3845  -20.9979 C   0  0  0  0  0  0  0  0  0  0  0  0
  -17.3169   41.2899  -20.7740 C   0  0  0  0  0  0  0  0  0  0  0  0
  -17.6530   42.5446  -20.0385 C   0  0  0  0  0  0  0  0  0  0  0  0
  -16.4475   43.3970  -19.9764 C   0  0  0  0  0  0  0  0  0  0  0  0
  -15.2737   42.9462  -19.4827 C   0  0  0  0  0  0  0  0  0  0  0  0
  -14.1771   43.7992  -19.4525 C   0  0  0  0  0  0  0  0  0  0  0  0
  -12.9407   43.4088  -18.9611 O   0  0  0  0  0  0  0  0  0  0  0  0
  -11.8659   43.1082  -19.8522 C   0  0  0  0  0  0  0  0  0  0  0  0
  -14.2633   45.1110  -19.9214 C   0  0  0  0  0  0  0  0  0  0  0  0
  -13.1386   45.9473  -19.8774 O   0  0  0  0  0  0  0  0  0  0  0  0
  -12.7965   46.5596  -18.6272 C   0  0  0  0  0  0  0  0  0  0  0  0
  -15.4654   45.5540  -20.4206 C   0  0  0  0  0  0  0  0  0  0  0  0
  -15.5987   46.8283  -20.8905 O   0  0  0  0  0  0  0  0  0  0  0  0
  -15.0536   47.1924  -22.1426 C   0  0  0  0  0  0  0  0  0  0  0  0
  -16.5404   44.6927  -20.4417 C   0  0  0  0  0  0  0  0  0  0  0  0
  -18.9605   40.1053  -22.2276 C   0  0  0  0  0  0  0  0  0  0  0  0
  -20.0273   39.2424  -22.3738 C   0  0  0  0  0  0  0  0  0  0  0  0
  -20.5475   38.9624  -23.6396 O   0  0  0  0  0  0  0  0  0  0  0  0
  1  2  1  0
  2  3  1  0
  3  4  2  0
  4  5  1  0
  5  6  2  0
  6  7  1  0
  7  8  1  0
  8  9  1  0
  9 10  2  0
 10 11  1  0
 11 12  1  0
 12 13  1  0
 11 14  2  0
 14 15  1  0
 15 16  1  0
 14 17  1  0
 17 18  1  0
 18 19  1  0
 17 20  2  0
  6 21  1  0
 21 22  2  0
 22 23  1  0
 22  3  1  0
 20  9  1  0
M  END
$$$$
