
     RDKit          3D

 22 21  0  0  0  0  0  0  0  0999 V2000
  -35.3832    6.5507   -9.5523 C   0  0  0  0  0  0  0  0  0  0  0  0
  -35.7578    7.6882  -10.4733 C   0  0  0  0  0  0  0  0  0  0  0  0
  -35.4426    7.3011  -11.8877 C   0  0  0  0  0  0  0  0  0  0  0  0
  -35.8046    8.4574  -12.8216 C   0  0  0  0  0  0  0  0  0  0  0  0
  -35.5945    8.0293  -14.2689 C   0  0  0  0  0  0  0  0  0  0  0  0
  -35.9400    9.1365  -15.2006 C   0  0  0  0  0  0  0  0  0  0  0  0
  -34.9604    9.8057  -15.7766 C   0  0  0  0  0  0  0  0  0  0  0  0
  -34.6186    9.6756  -17.2191 C   0  0  0  0  0  0  0  0  0  0  0  0
  -33.2611   10.1615  -17.5301 C   0  0  0  0  0  0  0  0  0  0  0  0
  -33.0961   11.0463  -18.5025 C   0  0  0  0  0  0  0  0  0  0  0  0
  -31.6859   11.4124  -18.8886 C   0  0  0  0  0  0  0  0  0  0  0  0
  -31.7552   12.1642  -20.1710 C   0  0  0  0  0  0  0  0  0  0  0  0
  -30.6644   12.5474  -20.8279 C   0  0  0  0  0  0  0  0  0  0  0  0
  -30.1928   13.9600  -20.8266 C   0  0  0  0  0  0  0  0  0  0  0  0
  -30.2772   14.6061  -22.1409 C   0  0  0  0  0  0  0  0  0  0  0  0
  -29.2336   15.1270  -22.7760 C   0  0  0  0  0  0  0  0  0  0  0  0
  -29.3546   15.8133  -24.1105 C   0  0  0  0  0  0  0  0  0  0  0  0
  -28.0338   16.3370  -24.5814 C   0  0  0  0  0  0  0  0  0  0  0  0
  -28.2438   16.9726  -25.9338 C   0  0  0  0  0  0  0  0  0  0  0  0
  -29.0498   18.1943  -25.8687 C   0  0  0  0  0  0  0  0  0  0  0  0
  -29.6637   18.5802  -26.8920 O   0  0  0  0  0  0  0  0  0  0  0  0
  -29.1550   18.9374  -24.7103 O   0  0  0  0  0  0  0  0  0  0  0  0
  1  2  1  0
  2  3  1  0
  3  4  1  0
  4  5  1  0
  5  6  1  0
  6  7  2  0
  7  8  1  0
  8  9  1  0
  9 10  2  0
 10 11  1  0
 11 12  1  0
 12 13  2  0
 13 14  1  0
 14 15  1  0
 15 16  2  0
 16 17  1  0
 17 18  1  0
 18 19  1  0
 19 20  1  0
 20 21  2  0
 20 22  1  0
M  END
$$$$
