
     RDKit          3D

 20 21  0  0  0  0  0  0  0  0999 V2000
  -22.3705   18.3306  -30.0679 C   0  0  0  0  0  0  0  0  0  0  0  0
  -21.3389   17.5190  -30.6765 N   0  0  0  0  0  0  0  0  0  0  0  0
  -21.0955   16.2388  -30.1688 C   0  0  0  0  0  0  0  0  0  0  0  0
  -22.0661   15.4897  -29.8965 O   0  0  0  0  0  0  0  0  0  0  0  0
  -19.7224   15.7723  -29.9551 C   0  0  0  0  0  0  0  0  0  0  0  0
  -18.6532   16.5751  -30.2357 C   0  0  0  0  0  0  0  0  0  0  0  0
  -17.3491   16.1101  -30.0245 C   0  0  0  0  0  0  0  0  0  0  0  0
  -17.1178   14.8465  -29.5342 C   0  0  0  0  0  0  0  0  0  0  0  0
  -15.7873   14.3255  -29.3008 C   0  0  0  0  0  0  0  0  0  0  0  0
  -14.9044   14.0073  -30.3278 C   0  0  0  0  0  0  0  0  0  0  0  0
  -13.6523   13.5170  -30.1100 C   0  0  0  0  0  0  0  0  0  0  0  0
  -12.5299   13.1120  -31.3928 Cl  0  0  0  0  0  0  0  0  0  0  0  0
  -13.2339   13.3248  -28.8131 C   0  0  0  0  0  0  0  0  0  0  0  0
  -14.0741   13.6258  -27.7569 C   0  0  0  0  0  0  0  0  0  0  0  0
  -13.5964   13.4020  -26.0881 Cl  0  0  0  0  0  0  0  0  0  0  0  0
  -15.3232   14.1158  -28.0154 C   0  0  0  0  0  0  0  0  0  0  0  0
  -16.3973   14.5014  -26.6982 Cl  0  0  0  0  0  0  0  0  0  0  0  0
  -18.2180   14.0666  -29.2632 C   0  0  0  0  0  0  0  0  0  0  0  0
  -18.0243   12.7504  -28.7538 N   0  0  0  0  0  0  0  0  0  0  0  0
  -19.4836   14.5383  -29.4760 N   0  0  0  0  0  0  0  0  0  0  0  0
  1  2  1  0
  2  3  1  0
  3  4  2  0
  3  5  1  0
  5  6  2  0
  6  7  1  0
  7  8  2  0
  8  9  1  0
  9 10  2  0
 10 11  1  0
 11 12  1  0
 11 13  2  0
 13 14  1  0
 14 15  1  0
 14 16  2  0
 16 17  1  0
  8 18  1  0
 18 19  1  0
 18 20  2  0
 20  5  1  0
 16  9  1  0
M  END
$$$$
