
     RDKit          3D

 22 20  0  0  0  0  0  0  0  0999 V2000
  -14.2078   17.4198  -35.1857 C   0  0  0  0  0  0  0  0  0  0  0  0
  -15.5958   17.8977  -35.5506 C   0  0  0  0  0  0  0  0  0  0  0  0
  -16.1434   17.1708  -36.6379 N   0  0  0  0  0  0  0  0  0  0  0  0
  -16.4785   15.8342  -36.4687 C   0  0  0  0  0  0  0  0  0  0  0  0
  -17.6493   15.5600  -35.5524 C   0  0  0  0  0  0  0  0  0  0  0  0
  -15.8058   17.7055  -37.8969 C   0  0  0  0  0  0  0  0  0  0  0  0
  -16.3406   17.0143  -39.0995 C   0  0  0  0  0  0  0  0  0  0  0  0
  -15.9201   17.7262  -40.3322 N   0  0  0  0  0  0  0  0  0  0  0  0
  -16.3209   19.0512  -40.5861 C   0  0  0  0  0  0  0  0  0  0  0  0
  -17.0817   19.6170  -39.6946 O   0  0  0  0  0  0  0  0  0  0  0  0
  -15.9529   19.8264  -41.7587 C   0  0  0  0  0  0  0  0  0  0  0  0
  -16.4533   21.1380  -41.8302 C   0  0  0  0  0  0  0  0  0  0  0  0
  -16.1613   21.9435  -42.8968 C   0  0  0  0  0  0  0  0  0  0  0  0
  -16.7890   23.5812  -42.9851 Cl  0  0  0  0  0  0  0  0  0  0  0  0
  -15.3647   21.4385  -43.9008 C   0  0  0  0  0  0  0  0  0  0  0  0
  -15.0844   22.3095  -44.9950 N   0  0  0  0  0  0  0  0  0  0  0  0
  -14.8741   20.1498  -43.8295 C   0  0  0  0  0  0  0  0  0  0  0  0
  -15.1658   19.3116  -42.7395 C   0  0  0  0  0  0  0  0  0  0  0  0
  -14.6336   18.0354  -42.7480 O   0  0  0  0  0  0  0  0  0  0  0  0
  -13.8323   17.5062  -43.7435 C   0  0  0  0  0  0  0  0  0  0  0  0
  -15.4830   18.5643  -40.3486 Cl  0  0  0  0  0  0  0  0  0  0  0  0
  -15.3225   18.6017  -39.5842 O   0  0  0  0  0  0  0  0  0  0  0  0
  1  2  1  0
  2  3  1  0
  3  4  1  0
  4  5  1  0
  3  6  1  0
  6  7  1  0
  7  8  1  0
  8  9  1  0
  9 10  2  0
  9 11  1  0
 11 12  2  0
 12 13  1  0
 13 14  1  0
 13 15  2  0
 15 16  1  0
 15 17  1  0
 17 18  2  0
 18 19  1  0
 19 20  1  0
 18 11  1  0
M  END
$$$$
