
     RDKit          3D

 34 37  0  0  0  0  0  0  0  0999 V2000
  -20.6304   19.1582  -41.6314 C   0  0  0  0  0  0  0  0  0  0  0  0
  -20.9057   20.4753  -40.9662 C   0  0  0  0  0  0  0  0  0  0  0  0
  -20.8865   21.5422  -41.9572 N   0  0  0  0  0  0  0  0  0  0  0  0
  -19.8530   20.7030  -39.9038 C   0  0  0  0  0  0  0  0  0  0  0  0
  -20.0850   21.9909  -39.1522 C   0  0  0  0  0  0  0  0  0  0  0  0
  -21.4519   22.2536  -38.8761 N   0  0  0  0  0  0  0  0  0  0  0  0
  -21.8117   23.0582  -37.7587 C   0  0  0  0  0  0  0  0  0  0  0  0
  -20.8008   23.4972  -36.8916 C   0  0  0  0  0  0  0  0  0  0  0  0
  -21.1515   24.2692  -35.8137 C   0  0  0  0  0  0  0  0  0  0  0  0
  -22.4617   24.6263  -35.5562 C   0  0  0  0  0  0  0  0  0  0  0  0
  -23.3802   24.1870  -36.4045 N   0  0  0  0  0  0  0  0  0  0  0  0
  -23.1017   23.4186  -37.4924 C   0  0  0  0  0  0  0  0  0  0  0  0
  -24.1791   23.0351  -38.3111 N   0  0  0  0  0  0  0  0  0  0  0  0
  -25.4851   23.0233  -37.8069 C   0  0  0  0  0  0  0  0  0  0  0  0
  -25.9444   21.9082  -37.4220 O   0  0  0  0  0  0  0  0  0  0  0  0
  -26.3291   24.2037  -37.7031 C   0  0  0  0  0  0  0  0  0  0  0  0
  -26.1036   25.2162  -36.8505 N   0  0  0  0  0  0  0  0  0  0  0  0
  -26.8853   26.3115  -36.7521 C   0  0  0  0  0  0  0  0  0  0  0  0
  -26.4424   27.3162  -35.7999 C   0  0  0  0  0  0  0  0  0  0  0  0
  -25.1913   27.8450  -35.9928 N   0  0  0  0  0  0  0  0  0  0  0  0
  -24.6571   28.8071  -35.2445 C   0  0  0  0  0  0  0  0  0  0  0  0
  -25.4086   29.3157  -34.1961 C   0  0  0  0  0  0  0  0  0  0  0  0
  -26.6685   28.8053  -33.9780 C   0  0  0  0  0  0  0  0  0  0  0  0
  -27.2096   27.7908  -34.7825 C   0  0  0  0  0  0  0  0  0  0  0  0
  -28.5670   27.3610  -34.4804 C   0  0  0  0  0  0  0  0  0  0  0  0
  -28.5838   25.9674  -34.2890 F   0  0  0  0  0  0  0  0  0  0  0  0
  -28.9869   27.8749  -33.2441 F   0  0  0  0  0  0  0  0  0  0  0  0
  -29.5427   27.6549  -35.3710 F   0  0  0  0  0  0  0  0  0  0  0  0
  -27.9766   26.4196  -37.5551 C   0  0  0  0  0  0  0  0  0  0  0  0
  -28.2380   25.4153  -38.4325 N   0  0  0  0  0  0  0  0  0  0  0  0
  -27.4381   24.3350  -38.5073 C   0  0  0  0  0  0  0  0  0  0  0  0
  -27.7057   23.2698  -39.4322 N   0  0  0  0  0  0  0  0  0  0  0  0
  -22.5619   21.7508  -39.6672 C   0  0  0  0  0  0  0  0  0  0  0  0
  -22.2424   20.4077  -40.2891 C   0  0  0  0  0  0  0  0  0  0  0  0
  1  2  1  0
  2  3  1  0
  2  4  1  0
  4  5  1  0
  5  6  1  0
  6  7  1  0
  7  8  2  0
  8  9  1  0
  9 10  2  0
 10 11  1  0
 11 12  2  0
 12 13  1  0
 13 14  1  0
 14 15  2  0
 14 16  1  0
 16 17  2  0
 17 18  1  0
 18 19  1  0
 19 20  2  0
 20 21  1  0
 21 22  2  0
 22 23  1  0
 23 24  2  0
 24 25  1  0
 25 26  1  0
 25 27  1  0
 25 28  1  0
 18 29  2  0
 29 30  1  0
 30 31  2  0
 31 32  1  0
  6 33  1  0
 33 34  1  0
 34  2  1  0
 12  7  1  0
 31 16  1  0
 24 19  1  0
M  END
$$$$
