
     RDKit          3D

 33 37  0  0  0  0  0  0  0  0999 V2000
  -22.1460   34.0781  -25.2597 C   0  0  0  0  0  0  0  0  0  0  0  0
  -22.3101   34.6959  -24.1389 C   0  0  0  0  0  0  0  0  0  0  0  0
  -21.6412   35.8539  -23.6487 C   0  0  0  0  0  0  0  0  0  0  0  0
  -20.3505   35.7245  -23.5251 O   0  0  0  0  0  0  0  0  0  0  0  0
  -22.1490   37.0766  -23.2897 N   0  0  0  0  0  0  0  0  0  0  0  0
  -23.2910   37.7049  -23.8954 C   0  0  0  0  0  0  0  0  0  0  0  0
  -23.5686   39.0636  -23.2292 C   0  0  0  0  0  0  0  0  0  0  0  0
  -22.3559   39.9161  -23.1234 C   0  0  0  0  0  0  0  0  0  0  0  0
  -21.0904   39.1396  -22.8321 C   0  0  0  0  0  0  0  0  0  0  0  0
  -20.2224   39.9275  -21.9654 N   0  0  0  0  0  0  0  0  0  0  0  0
  -19.4965   40.9711  -22.2236 N   0  0  0  0  0  0  0  0  0  0  0  0
  -18.8195   41.4219  -21.1258 C   0  0  0  0  0  0  0  0  0  0  0  0
  -17.9038   42.5791  -21.1173 C   0  0  0  0  0  0  0  0  0  0  0  0
  -16.6201   42.5171  -20.6646 C   0  0  0  0  0  0  0  0  0  0  0  0
  -15.7755   43.6322  -20.6979 C   0  0  0  0  0  0  0  0  0  0  0  0
  -16.2409   44.8274  -21.1968 C   0  0  0  0  0  0  0  0  0  0  0  0
  -15.4597   45.9738  -21.2605 O   0  0  0  0  0  0  0  0  0  0  0  0
  -15.9195   47.1659  -20.7725 C   0  0  0  0  0  0  0  0  0  0  0  0
  -16.0515   47.3346  -19.4247 C   0  0  0  0  0  0  0  0  0  0  0  0
  -16.5233   48.5663  -18.9829 C   0  0  0  0  0  0  0  0  0  0  0  0
  -16.8477   49.5827  -19.8564 C   0  0  0  0  0  0  0  0  0  0  0  0
  -16.7033   49.3818  -21.2184 C   0  0  0  0  0  0  0  0  0  0  0  0
  -16.2362   48.1652  -21.6763 C   0  0  0  0  0  0  0  0  0  0  0  0
  -17.5364   44.9168  -21.6603 C   0  0  0  0  0  0  0  0  0  0  0  0
  -18.3368   43.8040  -21.6132 C   0  0  0  0  0  0  0  0  0  0  0  0
  -19.1719   40.5664  -20.1126 C   0  0  0  0  0  0  0  0  0  0  0  0
  -18.8014   40.5124  -18.7879 C   0  0  0  0  0  0  0  0  0  0  0  0
  -17.8673   41.4590  -18.2204 N   0  0  0  0  0  0  0  0  0  0  0  0
  -19.3183   39.5290  -18.0202 N   0  0  0  0  0  0  0  0  0  0  0  0
  -20.1680   38.6319  -18.5392 C   0  0  0  0  0  0  0  0  0  0  0  0
  -20.5271   38.6857  -19.8329 N   0  0  0  0  0  0  0  0  0  0  0  0
  -20.0441   39.6496  -20.6627 C   0  0  0  0  0  0  0  0  0  0  0  0
  -21.4917   37.8396  -22.1952 C   0  0  0  0  0  0  0  0  0  0  0  0
  1  2  2  0
  2  3  1  0
  3  4  2  0
  3  5  1  0
  5  6  1  0
  6  7  1  0
  7  8  1  0
  8  9  1  0
  9 10  1  0
 10 11  1  0
 11 12  2  0
 12 13  1  0
 13 14  2  0
 14 15  1  0
 15 16  2  0
 16 17  1  0
 17 18  1  0
 18 19  2  0
 19 20  1  0
 20 21  2  0
 21 22  1  0
 22 23  2  0
 16 24  1  0
 24 25  2  0
 12 26  1  0
 26 27  2  0
 27 28  1  0
 27 29  1  0
 29 30  2  0
 30 31  1  0
 31 32  2  0
  9 33  1  0
 33  5  1  0
 32 10  1  0
 25 13  1  0
 32 26  1  0
 23 18  1  0
M  END
$$$$
