
     RDKit          3D

 31 35  0  0  0  0  0  0  0  0999 V2000
  -22.5519   37.0683  -24.3432 C   0  0  0  0  0  0  0  0  0  0  0  0
  -21.5035   36.7797  -23.2557 C   0  0  0  0  0  0  0  0  0  0  0  0
  -21.1739   35.3086  -23.4130 C   0  0  0  0  0  0  0  0  0  0  0  0
  -22.1241   36.9267  -22.0420 O   0  0  0  0  0  0  0  0  0  0  0  0
  -21.3138   37.6581  -21.1946 C   0  0  2  0  0  0  0  0  0  0  0  0
  -22.0237   38.9986  -20.9151 C   0  0  0  0  0  0  0  0  0  0  0  0
  -21.4475   39.8291  -22.0116 C   0  0  1  0  0  0  0  0  0  0  0  0
  -21.6243   41.3091  -21.8964 C   0  0  2  0  0  0  0  0  0  0  0  0
  -23.0948   41.6640  -21.7679 C   0  0  0  0  0  0  0  0  0  0  0  0
  -23.1547   43.1593  -21.5226 C   0  0  2  0  0  0  0  0  0  0  0  0
  -24.3805   43.6262  -21.2095 F   0  0  0  0  0  0  0  0  0  0  0  0
  -22.6371   43.7279  -22.8311 C   0  0  0  0  0  0  0  0  0  0  0  0
  -23.4033   44.4648  -23.5593 C   0  0  0  0  0  0  0  0  0  0  0  0
  -22.9920   45.0481  -24.8409 C   0  0  0  0  0  0  0  0  0  0  0  0
  -23.7452   45.7635  -25.5371 O   0  0  0  0  0  0  0  0  0  0  0  0
  -21.6380   44.7374  -25.2531 C   0  0  0  0  0  0  0  0  0  0  0  0
  -20.8890   43.9856  -24.4790 C   0  0  0  0  0  0  0  0  0  0  0  0
  -21.2531   43.4068  -23.2098 C   0  0  1  0  0  0  0  0  0  0  0  0
  -20.3692   44.1422  -22.1802 C   0  0  0  0  0  0  0  0  0  0  0  0
  -21.0057   41.9204  -23.1392 C   0  0  1  0  0  0  0  0  0  0  0  0
  -19.5644   41.5603  -23.1928 C   0  0  1  0  0  0  0  0  0  0  0  0
  -18.7747   42.1522  -22.2110 O   0  0  0  0  0  0  0  0  0  0  0  0
  -19.3163   40.0844  -23.1020 C   0  0  0  0  0  0  0  0  0  0  0  0
  -19.9955   39.4719  -21.9044 C   0  0  1  0  0  0  0  0  0  0  0  0
  -19.3752   39.8015  -20.6049 C   0  0  0  0  0  0  0  0  0  0  0  0
  -20.1163   37.9656  -22.0344 C   0  0  1  0  0  0  0  0  0  0  0  0
  -18.8752   37.3386  -21.5779 C   0  0  0  0  0  0  0  0  0  0  0  0
  -18.4833   37.5279  -20.4390 O   0  0  0  0  0  0  0  0  0  0  0  0
  -18.0298   36.4601  -22.4353 C   0  0  0  0  0  0  0  0  0  0  0  0
  -17.0777   35.8289  -21.6613 O   0  0  0  0  0  0  0  0  0  0  0  0
  -20.4312   37.6217  -23.3546 O   0  0  0  0  0  0  0  0  0  0  0  0
  1  2  1  0
  2  3  1  0
  2  4  1  0
  4  5  1  0
  5  6  1  6
  7  6  1  1
  7  8  1  0
  8  9  1  6
  9 10  1  0
 10 11  1  6
 10 12  1  0
 12 13  2  0
 13 14  1  0
 14 15  2  0
 14 16  1  0
 16 17  2  0
 17 18  1  0
 18 19  1  1
 18 20  1  0
 20 21  1  1
 21 22  1  1
 21 23  1  0
 23 24  1  0
 24 25  1  1
 24 26  1  0
 26 27  1  1
 27 28  2  0
 27 29  1  0
 29 30  1  0
 26 31  1  0
 31  2  1  0
 26  5  1  0
 24  7  1  0
 20  8  1  0
 18 12  1  0
M  END
$$$$
