
     RDKit          3D

 26 28  0  0  0  0  0  0  0  0999 V2000
  -17.3415   44.4982  -22.7085 O   0  0  0  0  0  0  0  0  0  0  0  0
  -17.2598   44.9129  -21.5046 C   0  0  0  0  0  0  0  0  0  0  0  0
  -18.1041   45.9345  -21.1426 O   0  0  0  0  0  0  0  0  0  0  0  0
  -16.3310   44.3322  -20.5800 C   0  0  0  0  0  0  0  0  0  0  0  0
  -15.0751   44.9504  -20.4698 C   0  0  0  0  0  0  0  0  0  0  0  0
  -14.1013   44.4365  -19.6533 C   0  0  0  0  0  0  0  0  0  0  0  0
  -12.7871   45.1529  -19.5891 C   0  0  0  0  0  0  0  0  0  0  0  0
  -12.2124   44.7922  -18.3792 F   0  0  0  0  0  0  0  0  0  0  0  0
  -13.0512   46.4987  -19.5438 F   0  0  0  0  0  0  0  0  0  0  0  0
  -11.9842   44.8020  -20.6569 F   0  0  0  0  0  0  0  0  0  0  0  0
  -14.3490   43.2944  -18.9242 C   0  0  0  0  0  0  0  0  0  0  0  0
  -15.5793   42.7087  -19.0456 C   0  0  0  0  0  0  0  0  0  0  0  0
  -16.6026   43.2084  -19.8725 C   0  0  0  0  0  0  0  0  0  0  0  0
  -17.8323   42.5570  -19.8729 N   0  0  0  0  0  0  0  0  0  0  0  0
  -18.2620   41.5672  -18.8724 C   0  0  0  0  0  0  0  0  0  0  0  0
  -18.8894   40.4731  -19.7753 C   0  0  0  0  0  0  0  0  0  0  0  0
  -19.4934   41.2751  -20.9106 C   0  0  2  0  0  0  0  0  0  0  0  0
  -19.2907   40.6881  -22.1460 O   0  0  0  0  0  0  0  0  0  0  0  0
  -20.2632   39.7674  -22.4633 C   0  0  0  0  0  0  0  0  0  0  0  0
  -19.9216   38.4520  -21.8904 C   0  0  0  0  0  0  0  0  0  0  0  0
  -18.6045   38.0136  -21.8955 C   0  0  0  0  0  0  0  0  0  0  0  0
  -18.2786   36.7883  -21.3631 C   0  0  0  0  0  0  0  0  0  0  0  0
  -19.2986   36.0250  -20.8322 C   0  0  0  0  0  0  0  0  0  0  0  0
  -20.6133   36.4525  -20.8222 C   0  0  0  0  0  0  0  0  0  0  0  0
  -20.8794   37.6543  -21.3531 N   0  0  0  0  0  0  0  0  0  0  0  0
  -18.9239   42.6772  -20.8306 C   0  0  0  0  0  0  0  0  0  0  0  0
  1  2  2  0
  2  3  1  0
  2  4  1  0
  4  5  2  0
  5  6  1  0
  6  7  1  0
  7  8  1  0
  7  9  1  0
  7 10  1  0
  6 11  2  0
 11 12  1  0
 12 13  2  0
 13 14  1  0
 14 15  1  0
 15 16  1  0
 16 17  1  0
 17 18  1  6
 18 19  1  0
 19 20  1  0
 20 21  2  0
 21 22  1  0
 22 23  2  0
 23 24  1  0
 24 25  2  0
 17 26  1  0
 13  4  1  0
 26 14  1  0
 25 20  1  0
M  END
$$$$
