
     RDKit          3D

  6  4  0  0  0  0  0  0  0  0999 V2000
  -15.7755   19.6284   -9.7288 C   0  0  0  0  0  0  0  0  0  0  0  0
  -15.4342   18.7677  -10.8152 N   0  0  0  0  0  4  0  0  0  0  0  0
  -15.4842   17.3681  -10.5126 C   0  0  0  0  0  0  0  0  0  0  0  0
  -14.1117   19.1835  -11.2621 C   0  0  0  0  0  0  0  0  0  0  0  0
  -16.4349   18.9926  -11.8686 C   0  0  0  0  0  0  0  0  0  0  0  0
  -15.4587   18.8121  -10.8484 Cl  0  0  0  0  0 15  0  0  0  0  0  0
  1  2  1  0
  2  3  1  0
  2  4  1  0
  2  5  1  0
M  CHG  2   2   1   6  -1
M  END
$$$$
