
     RDKit          3D

 20 22  0  0  0  0  0  0  0  0999 V2000
  -20.8535   39.7029  -23.0607 O   0  0  0  0  0  0  0  0  0  0  0  0
  -19.7299   39.2237  -22.7657 C   0  0  0  0  0  0  0  0  0  0  0  0
  -18.5900   39.9508  -23.0603 C   0  0  0  0  0  0  0  0  0  0  0  0
  -18.7046   41.2409  -23.6979 C   0  0  0  0  0  0  0  0  0  0  0  0
  -18.9077   41.3542  -25.0548 C   0  0  0  0  0  0  0  0  0  0  0  0
  -19.0149   42.5900  -25.6475 C   0  0  0  0  0  0  0  0  0  0  0  0
  -18.9176   43.7150  -24.8737 C   0  0  0  0  0  0  0  0  0  0  0  0
  -19.0305   44.9685  -25.5035 O   0  0  0  0  0  0  0  0  0  0  0  0
  -18.7162   43.6204  -23.5264 C   0  0  0  0  0  0  0  0  0  0  0  0
  -18.6081   42.3779  -22.9281 C   0  0  0  0  0  0  0  0  0  0  0  0
  -17.3733   39.3881  -22.7195 C   0  0  0  0  0  0  0  0  0  0  0  0
  -17.2780   38.2148  -22.1402 O   0  0  0  0  0  0  0  0  0  0  0  0
  -18.3358   37.4972  -21.8458 C   0  0  0  0  0  0  0  0  0  0  0  0
  -18.2286   36.2549  -21.2320 C   0  0  0  0  0  0  0  0  0  0  0  0
  -19.3692   35.5372  -20.9420 C   0  0  0  0  0  0  0  0  0  0  0  0
  -19.2648   34.2913  -20.3266 O   0  0  0  0  0  0  0  0  0  0  0  0
  -20.6058   36.0588  -21.2637 C   0  0  0  0  0  0  0  0  0  0  0  0
  -20.7407   37.2887  -21.8730 C   0  0  0  0  0  0  0  0  0  0  0  0
  -21.9600   37.8495  -22.2130 O   0  0  0  0  0  0  0  0  0  0  0  0
  -19.5964   37.9954  -22.1573 C   0  0  0  0  0  0  0  0  0  0  0  0
  1  2  2  0
  2  3  1  0
  3  4  1  0
  4  5  2  0
  5  6  1  0
  6  7  2  0
  7  8  1  0
  7  9  1  0
  9 10  2  0
  3 11  2  0
 11 12  1  0
 12 13  1  0
 13 14  2  0
 14 15  1  0
 15 16  1  0
 15 17  2  0
 17 18  1  0
 18 19  1  0
 18 20  2  0
 20  2  1  0
 10  4  1  0
 20 13  1  0
M  END
$$$$
