
     RDKit          3D

 24 26  0  0  0  0  0  0  0  0999 V2000
  -13.6278   20.5664  -45.4928 C   0  0  0  0  0  0  0  0  0  0  0  0
  -14.4321   20.3458  -44.2644 C   0  0  0  0  0  0  0  0  0  0  0  0
  -13.8922   20.1669  -43.0109 C   0  0  0  0  0  0  0  0  0  0  0  0
  -14.9783   19.9969  -42.1643 C   0  0  0  0  0  0  0  0  0  0  0  0
  -16.1140   20.0826  -42.9539 C   0  0  0  0  0  0  0  0  0  0  0  0
  -17.4579   19.9510  -42.4077 C   0  0  0  0  0  0  0  0  0  0  0  0
  -17.7034   19.8485  -41.1518 N   0  0  0  0  0  0  0  0  0  0  0  0
  -17.0207   18.8942  -40.3417 N   0  0  0  0  0  0  0  0  0  0  0  0
  -17.4853   18.6466  -39.0491 C   0  0  0  0  0  0  0  0  0  0  0  0
  -18.6542   19.1411  -38.7699 O   0  0  0  0  0  0  0  0  0  0  0  0
  -16.8453   17.9170  -37.9812 C   0  0  0  0  0  0  0  0  0  0  0  0
  -17.6414   17.1823  -37.0769 C   0  0  0  0  0  0  0  0  0  0  0  0
  -17.0629   16.4755  -36.0473 C   0  0  0  0  0  0  0  0  0  0  0  0
  -15.7003   16.4645  -35.8706 C   0  0  0  0  0  0  0  0  0  0  0  0
  -14.9190   17.1763  -36.7456 C   0  0  0  0  0  0  0  0  0  0  0  0
  -15.4940   17.9100  -37.8114 C   0  0  0  0  0  0  0  0  0  0  0  0
  -14.6677   18.6067  -38.6606 O   0  0  0  0  0  0  0  0  0  0  0  0
  -13.3894   18.1230  -38.9093 C   0  0  0  0  0  0  0  0  0  0  0  0
  -13.1639   17.0803  -39.7952 C   0  0  0  0  0  0  0  0  0  0  0  0
  -11.8930   16.6083  -40.0346 C   0  0  0  0  0  0  0  0  0  0  0  0
  -10.8060   17.1642  -39.3953 C   0  0  0  0  0  0  0  0  0  0  0  0
  -10.9877   18.2026  -38.5070 C   0  0  0  0  0  0  0  0  0  0  0  0
  -12.2703   18.6551  -38.2864 C   0  0  0  0  0  0  0  0  0  0  0  0
  -15.7271   20.2905  -44.1924 O   0  0  0  0  0  0  0  0  0  0  0  0
  1  2  1  0
  2  3  2  0
  3  4  1  0
  4  5  2  0
  5  6  1  0
  6  7  2  0
  7  8  1  0
  8  9  1  0
  9 10  2  0
  9 11  1  0
 11 12  2  0
 12 13  1  0
 13 14  2  0
 14 15  1  0
 15 16  2  0
 16 17  1  0
 17 18  1  0
 18 19  2  0
 19 20  1  0
 20 21  2  0
 21 22  1  0
 22 23  2  0
  5 24  1  0
 24  2  1  0
 16 11  1  0
 23 18  1  0
M  END
$$$$
