
     RDKit          3D

 16 16  0  0  0  0  0  0  0  0999 V2000
  -20.0179   39.6634  -20.5273 N   0  0  0  0  0  0  0  0  0  0  0  0
  -19.7354   38.4444  -21.1877 C   0  0  0  0  0  0  0  0  0  0  0  0
  -20.6119   37.3790  -21.1405 C   0  0  0  0  0  0  0  0  0  0  0  0
  -20.3451   36.1866  -21.7812 C   0  0  0  0  0  0  0  0  0  0  0  0
  -21.4686   34.8313  -21.7163 Cl  0  0  0  0  0  0  0  0  0  0  0  0
  -19.1815   36.0110  -22.5006 C   0  0  0  0  0  0  0  0  0  0  0  0
  -18.8647   34.4818  -23.3082 S   0  0  0  0  0  6  0  0  0  0  0  0
  -20.0632   34.2685  -24.5139 N   0  0  0  0  0  0  0  0  0  0  0  0
  -17.5130   34.5012  -23.9347 O   0  0  0  0  0  0  0  0  0  0  0  0
  -18.9431   33.3978  -22.2718 O   0  0  0  0  0  0  0  0  0  0  0  0
  -18.2960   37.0633  -22.5583 C   0  0  0  0  0  0  0  0  0  0  0  0
  -18.5685   38.2548  -21.9147 C   0  0  0  0  0  0  0  0  0  0  0  0
  -17.4547   39.6017  -21.9777 S   0  0  0  0  0  6  0  0  0  0  0  0
  -17.8862   40.6220  -23.2638 N   0  0  0  0  0  0  0  0  0  0  0  0
  -16.0728   39.0509  -22.0873 O   0  0  0  0  0  0  0  0  0  0  0  0
  -17.5593   40.3575  -20.6700 O   0  0  0  0  0  0  0  0  0  0  0  0
  1  2  1  0
  2  3  2  0
  3  4  1  0
  4  5  1  0
  4  6  2  0
  6  7  1  0
  7  8  1  0
  7  9  2  0
  7 10  2  0
  6 11  1  0
 11 12  2  0
 12 13  1  0
 13 14  1  0
 13 15  2  0
 13 16  2  0
 12  2  1  0
M  END
$$$$
