
     RDKit          3D

 22 23  0  0  0  0  0  0  0  0999 V2000
  -10.4092   15.9804  -45.8581 C   0  0  0  0  0  0  0  0  0  0  0  0
  -10.3148   17.3247  -45.5101 O   0  0  0  0  0  0  0  0  0  0  0  0
  -10.6262   17.8461  -44.2714 C   0  0  0  0  0  0  0  0  0  0  0  0
  -11.8973   18.2876  -43.9731 C   0  0  0  0  0  0  0  0  0  0  0  0
  -12.2514   18.8157  -42.7471 C   0  0  0  0  0  0  0  0  0  0  0  0
  -13.6334   19.2565  -42.5336 C   0  0  0  0  0  0  0  0  0  0  0  0
  -14.3329   18.9154  -41.4754 C   0  0  0  0  0  0  0  0  0  0  0  0
  -15.7167   19.3296  -41.3328 C   0  0  0  0  0  0  0  0  0  0  0  0
  -16.4172   20.0965  -42.2280 C   0  0  0  0  0  0  0  0  0  0  0  0
  -17.7446   20.4620  -42.0353 C   0  0  0  0  0  0  0  0  0  0  0  0
  -18.4235   20.0573  -40.9094 C   0  0  0  0  0  0  0  0  0  0  0  0
  -19.7532   20.4026  -40.6803 O   0  0  0  0  0  0  0  0  0  0  0  0
  -20.1223   21.6943  -40.3043 C   0  0  0  0  0  0  0  0  0  0  0  0
  -17.7278   19.2860  -40.0037 C   0  0  0  0  0  0  0  0  0  0  0  0
  -16.4175   18.9229  -40.1899 C   0  0  0  0  0  0  0  0  0  0  0  0
  -15.7380   18.1381  -39.2506 O   0  0  0  0  0  0  0  0  0  0  0  0
  -16.3472   16.9404  -38.8140 C   0  0  0  0  0  0  0  0  0  0  0  0
  -11.2687   18.8937  -41.7949 C   0  0  0  0  0  0  0  0  0  0  0  0
   -9.9700   18.4489  -42.0821 C   0  0  0  0  0  0  0  0  0  0  0  0
   -9.0155   18.5497  -41.0866 O   0  0  0  0  0  0  0  0  0  0  0  0
   -8.3245   17.4359  -40.5802 C   0  0  0  0  0  0  0  0  0  0  0  0
   -9.6413   17.9261  -43.3119 C   0  0  0  0  0  0  0  0  0  0  0  0
  1  2  1  0
  2  3  1  0
  3  4  2  0
  4  5  1  0
  5  6  1  0
  6  7  2  0
  7  8  1  0
  8  9  2  0
  9 10  1  0
 10 11  2  0
 11 12  1  0
 12 13  1  0
 11 14  1  0
 14 15  2  0
 15 16  1  0
 16 17  1  0
  5 18  2  0
 18 19  1  0
 19 20  1  0
 20 21  1  0
 19 22  2  0
 22  3  1  0
 15  8  1  0
M  END
$$$$
