
     RDKit          3D

 22 23  0  0  0  0  0  0  0  0999 V2000
  -18.1356   20.9937  -29.0419 C   0  0  0  0  0  0  0  0  0  0  0  0
  -18.9803   20.1390  -29.7964 O   0  0  0  0  0  0  0  0  0  0  0  0
  -18.4578   18.9945  -30.3884 C   0  0  0  0  0  0  0  0  0  0  0  0
  -17.1357   18.6289  -30.2852 C   0  0  0  0  0  0  0  0  0  0  0  0
  -16.6662   17.4798  -30.8934 C   0  0  0  0  0  0  0  0  0  0  0  0
  -17.5004   16.6590  -31.6239 C   0  0  0  0  0  0  0  0  0  0  0  0
  -18.8103   17.0379  -31.7157 C   0  0  0  0  0  0  0  0  0  0  0  0
  -19.3120   18.1848  -31.1169 C   0  0  0  0  0  0  0  0  0  0  0  0
  -19.7577   16.2037  -32.4819 C   0  0  0  0  0  0  0  0  0  0  0  0
  -19.3711   14.8198  -32.5466 N   0  0  0  0  0  0  0  0  0  0  0  0
  -20.2085   14.1982  -33.5606 C   0  0  0  0  0  0  0  0  0  0  0  0
  -18.0195   14.5825  -32.8942 C   0  0  0  0  0  0  0  0  0  0  0  0
  -16.9913   15.4343  -32.2706 C   0  0  0  0  0  0  0  0  0  0  0  0
  -16.0877   14.6716  -31.3351 C   0  0  0  0  0  0  0  0  0  0  0  0
  -14.7204   14.8607  -31.3126 C   0  0  0  0  0  0  0  0  0  0  0  0
  -13.8974   14.1534  -30.4458 C   0  0  0  0  0  0  0  0  0  0  0  0
  -14.4282   13.2400  -29.5818 C   0  0  0  0  0  0  0  0  0  0  0  0
  -13.3498   12.3625  -28.4972 Cl  0  0  0  0  0  0  0  0  0  0  0  0
  -15.7825   13.0315  -29.5823 C   0  0  0  0  0  0  0  0  0  0  0  0
  -16.4352   11.8522  -28.4617 Cl  0  0  0  0  0  0  0  0  0  0  0  0
  -16.5942   13.7422  -30.4507 C   0  0  0  0  0  0  0  0  0  0  0  0
  -17.1851   15.5146  -31.2503 Cl  0  0  0  0  0  0  0  0  0  0  0  0
  1  2  1  0
  2  3  1  0
  3  4  2  0
  4  5  1  0
  5  6  2  0
  6  7  1  0
  7  8  2  0
  7  9  1  0
  9 10  1  0
 10 11  1  0
 10 12  1  0
 12 13  1  0
 13 14  1  0
 14 15  2  0
 15 16  1  0
 16 17  2  0
 17 18  1  0
 17 19  1  0
 19 20  1  0
 19 21  2  0
  8  3  1  0
 21 14  1  0
 13  6  1  0
M  END
$$$$
