
     RDKit          3D

 54 60  0  0  0  0  0  0  0  0999 V2000
  -21.2258   37.8865  -23.9115 C   0  0  0  0  0  0  0  0  0  0  0  0
  -20.7348   39.0551  -23.4967 C   0  0  0  0  0  0  0  0  0  0  0  0
  -19.4787   39.0843  -22.7344 C   0  0  2  0  0  0  0  0  0  0  0  0
  -18.3911   38.1102  -23.0627 C   0  0  0  0  0  0  0  0  0  0  0  0
  -19.1756   37.9021  -21.8439 C   0  0  1  0  0  0  0  0  0  0  0  0
  -18.6330   38.3253  -20.5436 N   0  0  0  0  0  0  0  0  0  0  0  0
  -19.0197   39.5532  -19.9846 C   0  0  0  0  0  0  0  0  0  0  0  0
  -20.1355   39.6273  -19.4125 O   0  0  0  0  0  0  0  0  0  0  0  0
  -18.1886   40.7777  -20.0268 C   0  0  2  0  0  0  0  0  0  0  0  0
  -18.0694   41.4841  -18.7243 C   0  0  0  0  0  0  0  0  0  0  0  0
  -17.7277   42.9392  -19.1038 C   0  0  2  0  0  0  0  0  0  0  0  0
  -18.5382   43.0594  -20.3508 C   0  0  0  0  0  0  0  0  0  0  0  0
  -18.6709   41.7571  -20.9532 N   0  0  0  0  0  0  0  0  0  0  0  0
  -19.2230   41.6907  -22.2864 C   0  0  0  0  0  0  0  0  0  0  0  0
  -19.0327   40.6306  -22.9218 O   0  0  0  0  0  0  0  0  0  0  0  0
  -19.9797   42.7806  -22.9196 C   0  0  2  0  0  0  0  0  0  0  0  0
  -21.1240   42.1551  -23.6978 C   0  0  0  0  0  0  0  0  0  0  0  0
  -20.6672   41.7834  -25.1009 C   0  0  0  0  0  0  0  0  0  0  0  0
  -21.6366   40.9052  -23.0506 C   0  0  0  0  0  0  0  0  0  0  0  0
  -22.2733   43.1295  -23.8375 C   0  0  0  0  0  0  0  0  0  0  0  0
  -19.1124   43.5539  -23.7652 N   0  0  0  0  0  0  0  0  0  0  0  0
  -19.4203   44.8192  -24.3305 C   0  0  0  0  0  0  0  0  0  0  0  0
  -18.9283   45.0574  -25.4660 O   0  0  0  0  0  0  0  0  0  0  0  0
  -20.2040   45.6905  -23.6516 O   0  0  0  0  0  0  0  0  0  0  0  0
  -19.9831   46.2966  -22.3966 C   0  0  2  0  0  0  0  0  0  0  0  0
  -21.1289   47.2664  -22.0276 C   0  0  0  0  0  0  0  0  0  0  0  0
  -19.7339   47.7309  -22.4739 C   0  0  1  0  0  0  0  0  0  0  0  0
  -18.9598   48.3814  -21.3914 C   0  0  0  0  0  0  0  0  0  0  0  0
  -18.1485   47.4858  -20.5208 C   0  0  0  0  0  0  0  0  0  0  0  0
  -16.9169   46.9417  -21.1721 C   0  0  0  0  0  0  0  0  0  0  0  0
  -15.8455   46.7968  -20.1143 C   0  0  0  0  0  0  0  0  0  0  0  0
  -16.4442   46.0766  -18.9242 C   0  0  0  0  0  0  0  0  0  0  0  0
  -15.4171   45.1844  -18.3305 C   0  0  0  0  0  0  0  0  0  0  0  0
  -14.4526   45.8230  -17.6318 N   0  0  0  0  0  0  0  0  0  0  0  0
  -13.4677   45.1407  -17.0479 C   0  0  0  0  0  0  0  0  0  0  0  0
  -12.4900   45.8087  -16.3394 C   0  0  0  0  0  0  0  0  0  0  0  0
  -11.4517   45.1494  -15.7200 C   0  0  0  0  0  0  0  0  0  0  0  0
  -11.4274   43.7601  -15.8390 C   0  0  0  0  0  0  0  0  0  0  0  0
  -10.3868   43.0849  -15.2201 O   0  0  0  0  0  0  0  0  0  0  0  0
   -9.9547   41.8552  -15.7477 C   0  0  0  0  0  0  0  0  0  0  0  0
  -12.4084   43.1034  -16.5484 C   0  0  0  0  0  0  0  0  0  0  0  0
  -13.4338   43.7836  -17.1574 C   0  0  0  0  0  0  0  0  0  0  0  0
  -14.4040   43.1799  -17.8564 N   0  0  0  0  0  0  0  0  0  0  0  0
  -15.4311   43.8074  -18.4734 C   0  0  0  0  0  0  0  0  0  0  0  0
  -16.4096   43.2003  -19.1790 O   0  0  0  0  0  0  0  0  0  0  0  0
  -20.2012   36.8414  -21.7583 C   0  0  0  0  0  0  0  0  0  0  0  0
  -21.3972   37.0963  -22.1206 O   0  0  0  0  0  0  0  0  0  0  0  0
  -19.9431   35.5263  -21.2895 N   0  0  0  0  0  0  0  0  0  0  0  0
  -19.9605   34.1710  -22.3857 S   0  0  0  0  0  6  0  0  0  0  0  0
  -20.0703   32.9342  -21.5397 O   0  0  0  0  0  0  0  0  0  0  0  0
  -18.7443   34.1488  -23.2559 O   0  0  0  0  0  0  0  0  0  0  0  0
  -21.3943   34.2684  -23.4221 C   0  0  0  0  0  0  0  0  0  0  0  0
  -21.4907   35.4148  -24.3731 C   0  0  0  0  0  0  0  0  0  0  0  0
  -21.2315   34.0248  -24.9007 C   0  0  0  0  0  0  0  0  0  0  0  0
  1  2  2  0
  3  2  1  6
  3  4  1  0
  4  5  1  0
  5  6  1  1
  6  7  1  0
  7  8  2  0
  9  7  1  1
  9 10  1  0
 11 10  1  6
 11 12  1  0
 12 13  1  0
 13 14  1  0
 14 15  2  0
 14 16  1  0
 16 17  1  6
 17 18  1  0
 17 19  1  0
 17 20  1  0
 16 21  1  0
 21 22  1  0
 22 23  2  0
 22 24  1  0
 24 25  1  0
 25 26  1  1
 27 26  1  1
 27 28  1  0
 28 29  1  0
 29 30  1  0
 30 31  1  0
 31 32  1  0
 32 33  1  0
 33 34  2  0
 34 35  1  0
 35 36  2  0
 36 37  1  0
 37 38  2  0
 38 39  1  0
 39 40  1  0
 38 41  1  0
 41 42  2  0
 42 43  1  0
 43 44  2  0
 44 45  1  0
  5 46  1  0
 46 47  2  0
 46 48  1  0
 48 49  1  0
 49 50  2  0
 49 51  2  0
 49 52  1  0
 52 53  1  0
 53 54  1  0
  5  3  1  0
 13  9  1  0
 27 25  1  0
 44 33  1  0
 54 52  1  0
 45 11  1  0
 42 35  1  0
M  END
$$$$
