
     RDKit          3D

 32 36  0  0  0  0  0  0  0  0999 V2000
  -21.9876   38.7539  -21.2644 N   0  0  0  0  0  0  0  0  0  0  0  0
  -21.2550   39.5904  -20.9465 C   0  0  0  0  0  0  0  0  0  0  0  0
  -20.3532   40.6447  -20.5300 C   0  0  0  0  0  0  0  0  0  0  0  0
  -19.0255   40.7988  -20.8289 C   0  0  0  0  0  0  0  0  0  0  0  0
  -18.2543   39.9034  -21.6066 N   0  0  0  0  0  0  0  0  0  0  0  0
  -18.4246   38.1902  -21.5648 S   0  0  0  0  0  6  0  0  0  0  0  0
  -18.1488   37.7034  -20.1760 O   0  0  0  0  0  0  0  0  0  0  0  0
  -17.4072   37.5918  -22.5323 O   0  0  0  0  0  0  0  0  0  0  0  0
  -20.0020   37.6977  -22.1373 C   0  0  0  0  0  0  0  0  0  0  0  0
  -20.4400   38.0822  -23.3844 C   0  0  0  0  0  0  0  0  0  0  0  0
  -21.6944   37.7004  -23.8587 C   0  0  0  0  0  0  0  0  0  0  0  0
  -22.5223   36.9350  -23.0982 C   0  0  0  0  0  0  0  0  0  0  0  0
  -22.0983   36.5364  -21.8358 C   0  0  0  0  0  0  0  0  0  0  0  0
  -20.8420   36.9241  -21.3723 C   0  0  0  0  0  0  0  0  0  0  0  0
  -18.5634   41.9231  -20.2552 N   0  0  0  0  0  0  0  0  0  0  0  0
  -17.2383   42.5093  -20.2600 C   0  0  0  0  0  0  0  0  0  0  0  0
  -17.0016   43.3689  -21.4207 C   0  0  0  0  0  0  0  0  0  0  0  0
  -16.1631   42.9455  -22.4234 C   0  0  0  0  0  0  0  0  0  0  0  0
  -15.9356   43.7664  -23.5368 C   0  0  0  0  0  0  0  0  0  0  0  0
  -16.5437   44.9944  -23.6371 C   0  0  0  0  0  0  0  0  0  0  0  0
  -17.3852   45.4255  -22.6366 C   0  0  0  0  0  0  0  0  0  0  0  0
  -17.6033   44.6005  -21.5355 C   0  0  0  0  0  0  0  0  0  0  0  0
  -19.5905   42.4947  -19.5862 C   0  0  0  0  0  0  0  0  0  0  0  0
  -19.6867   43.6302  -18.8361 N   0  0  0  0  0  0  0  0  0  0  0  0
  -20.8480   44.0028  -18.2500 C   0  0  0  0  0  0  0  0  0  0  0  0
  -20.9383   45.1437  -17.4969 C   0  0  0  0  0  0  0  0  0  0  0  0
  -22.1257   45.5110  -16.9056 C   0  0  0  0  0  0  0  0  0  0  0  0
  -23.2527   44.7085  -17.0767 C   0  0  0  0  0  0  0  0  0  0  0  0
  -23.1842   43.5562  -17.8305 C   0  0  0  0  0  0  0  0  0  0  0  0
  -21.9660   43.2153  -18.4143 C   0  0  0  0  0  0  0  0  0  0  0  0
  -21.8883   42.0935  -19.1504 N   0  0  0  0  0  0  0  0  0  0  0  0
  -20.7255   41.7323  -19.7295 C   0  0  0  0  0  0  0  0  0  0  0  0
  1  2  3  0
  2  3  1  0
  3  4  2  0
  4  5  1  0
  5  6  1  0
  6  7  2  0
  6  8  2  0
  6  9  1  0
  9 10  2  0
 10 11  1  0
 11 12  2  0
 12 13  1  0
 13 14  2  0
  4 15  1  0
 15 16  1  0
 16 17  1  0
 17 18  2  0
 18 19  1  0
 19 20  2  0
 20 21  1  0
 21 22  2  0
 15 23  1  0
 23 24  2  0
 24 25  1  0
 25 26  2  0
 26 27  1  0
 27 28  2  0
 28 29  1  0
 29 30  2  0
 30 31  1  0
 31 32  2  0
 32  3  1  0
 14  9  1  0
 22 17  1  0
 32 23  1  0
 30 25  1  0
M  END
$$$$
