
     RDKit          3D

  6  5  0  0  0  0  0  0  0  0999 V2000
  -17.5974   31.4413  -21.6341 C   0  0  0  0  0  0  0  0  0  0  0  0
  -19.0029   31.4954  -21.2193 C   0  0  0  0  0  0  0  0  0  0  0  0
  -19.6173   30.4155  -21.0261 O   0  0  0  0  0  0  0  0  0  0  0  0
  -19.7151   32.7434  -21.0221 C   0  0  0  0  0  0  0  0  0  0  0  0
  -21.0768   32.7724  -20.4257 C   0  0  0  0  0  0  0  0  0  0  0  0
  -19.2262   33.8662  -21.3417 O   0  0  0  0  0  0  0  0  0  0  0  0
  1  2  1  0
  2  3  2  0
  2  4  1  0
  4  5  1  0
  4  6  2  0
M  END
$$$$
