
     RDKit          3D

 36 40  0  0  0  0  0  0  0  0999 V2000
  -27.2751   10.8900  -23.9763 C   0  0  0  0  0  0  0  0  0  0  0  0
  -27.6267   12.3037  -23.5028 C   0  0  0  0  0  0  0  0  0  0  0  0
  -26.4564   12.7983  -22.7575 C   0  0  0  0  0  0  0  0  0  0  0  0
  -26.2913   12.6344  -21.4008 C   0  0  0  0  0  0  0  0  0  0  0  0
  -27.1614   11.9795  -20.4432 C   0  0  0  0  0  0  0  0  0  0  0  0
  -28.1450   12.7036  -19.8025 C   0  0  0  0  0  0  0  0  0  0  0  0
  -29.0016   12.1301  -18.8799 C   0  0  0  0  0  0  0  0  0  0  0  0
  -28.9021   10.7929  -18.5621 C   0  0  0  0  0  0  0  0  0  0  0  0
  -27.9224   10.0586  -19.1963 C   0  0  0  0  0  0  0  0  0  0  0  0
  -27.0678   10.6433  -20.1205 C   0  0  0  0  0  0  0  0  0  0  0  0
  -25.0941   13.2329  -21.0939 C   0  0  0  0  0  0  0  0  0  0  0  0
  -24.4654   13.3336  -19.7933 C   0  0  0  0  0  0  0  0  0  0  0  0
  -24.5464   12.3087  -18.8590 C   0  0  0  0  0  0  0  0  0  0  0  0
  -23.9194   12.4615  -17.6184 C   0  0  0  0  0  0  0  0  0  0  0  0
  -23.2243   13.6094  -17.3084 C   0  0  0  0  0  0  0  0  0  0  0  0
  -23.1400   14.6332  -18.2338 C   0  0  0  0  0  0  0  0  0  0  0  0
  -23.7593   14.4869  -19.4644 C   0  0  0  0  0  0  0  0  0  0  0  0
  -24.5906   13.7228  -22.2357 N   0  0  0  0  0  0  0  0  0  0  0  0
  -25.4007   13.4724  -23.2690 N   0  0  0  0  0  0  0  0  0  0  0  0
  -25.2110   13.8217  -24.6284 C   0  0  0  0  0  0  0  0  0  0  0  0
  -24.6488   12.9234  -25.5424 C   0  0  0  0  0  0  0  0  0  0  0  0
  -24.4490   13.2523  -26.8706 C   0  0  0  0  0  0  0  0  0  0  0  0
  -24.8071   14.4902  -27.3185 C   0  0  0  0  0  0  0  0  0  0  0  0
  -25.3591   15.3727  -26.4213 C   0  0  0  0  0  0  0  0  0  0  0  0
  -25.5656   15.0491  -25.0742 C   0  0  0  0  0  0  0  0  0  0  0  0
  -26.1591   16.0466  -24.1989 C   0  0  0  0  0  0  0  0  0  0  0  0
  -25.5358   17.2141  -23.8217 C   0  0  0  0  0  0  0  0  0  0  0  0
  -26.1546   18.1488  -22.9809 C   0  0  0  0  0  0  0  0  0  0  0  0
  -27.4274   17.9266  -22.4961 C   0  0  0  0  0  0  0  0  0  0  0  0
  -28.0627   16.7650  -22.8637 C   0  0  0  0  0  0  0  0  0  0  0  0
  -29.3342   16.5207  -22.3920 O   0  0  0  0  0  0  0  0  0  0  0  0
  -29.7181   15.4331  -21.6148 C   0  0  0  0  0  0  0  0  0  0  0  0
  -30.5840   14.5476  -22.4495 C   0  0  0  0  0  0  0  0  0  0  0  0
  -30.7016   13.3014  -22.1886 O   0  0  0  0  0  0  0  0  0  0  0  0
  -31.3040   15.0006  -23.5386 O   0  0  0  0  0  0  0  0  0  0  0  0
  -27.4521   15.8522  -23.6880 C   0  0  0  0  0  0  0  0  0  0  0  0
  1  2  1  0
  2  3  1  0
  3  4  2  0
  4  5  1  0
  5  6  2  0
  6  7  1  0
  7  8  2  0
  8  9  1  0
  9 10  2  0
  4 11  1  0
 11 12  1  0
 12 13  2  0
 13 14  1  0
 14 15  2  0
 15 16  1  0
 16 17  2  0
 11 18  2  0
 18 19  1  0
 19 20  1  0
 20 21  2  0
 21 22  1  0
 22 23  2  0
 23 24  1  0
 24 25  2  0
 25 26  1  0
 26 27  2  0
 27 28  1  0
 28 29  2  0
 29 30  1  0
 30 31  1  0
 31 32  1  0
 32 33  1  0
 33 34  2  0
 33 35  1  0
 30 36  2  0
 19  3  1  0
 25 20  1  0
 36 26  1  0
 10  5  1  0
 17 12  1  0
M  END
$$$$
