
     RDKit          3D

 12 12  0  0  0  0  0  0  0  0999 V2000
  -18.2528   40.7492  -22.6895 O   0  0  0  0  0  0  0  0  0  0  0  0
  -17.7572   39.5997  -22.5955 C   0  0  0  0  0  0  0  0  0  0  0  0
  -16.3759   39.5089  -22.6722 O   0  0  0  0  0  0  0  0  0  0  0  0
  -18.6302   38.4655  -22.4173 C   0  0  0  0  0  0  0  0  0  0  0  0
  -19.9734   38.6504  -22.2189 C   0  0  0  0  0  0  0  0  0  0  0  0
  -20.8243   37.5561  -22.0456 C   0  0  0  0  0  0  0  0  0  0  0  0
  -22.6927   37.7853  -21.7686 Br  0  0  0  0  0  0  0  0  0  0  0  0
  -20.3187   36.2700  -22.0725 C   0  0  0  0  0  0  0  0  0  0  0  0
  -18.9772   36.0851  -22.2706 C   0  0  0  0  0  0  0  0  0  0  0  0
  -18.2327   34.3319  -22.3157 Br  0  0  0  0  0  0  0  0  0  0  0  0
  -18.1449   37.1855  -22.4413 C   0  0  0  0  0  0  0  0  0  0  0  0
  -16.7861   37.0105  -22.6424 O   0  0  0  0  0  0  0  0  0  0  0  0
  1  2  2  0
  2  3  1  0
  2  4  1  0
  4  5  2  0
  5  6  1  0
  6  7  1  0
  6  8  2  0
  8  9  1  0
  9 10  1  0
  9 11  2  0
 11 12  1  0
 11  4  1  0
M  END
$$$$
