
     RDKit          3D

 29 31  0  0  0  0  0  0  0  0999 V2000
  -22.0786   42.4154  -22.4632 C   0  0  0  0  0  0  0  0  0  0  0  0
  -21.0649   42.9548  -21.5939 C   0  0  0  0  0  0  0  0  0  0  0  0
  -21.5062   43.7037  -20.6265 O   0  0  0  0  0  0  0  0  0  0  0  0
  -19.6049   42.7699  -21.6588 C   0  0  0  0  0  0  0  0  0  0  0  0
  -18.7761   43.4629  -20.9327 C   0  0  0  0  0  0  0  0  0  0  0  0
  -19.1977   44.5050  -19.9551 C   0  0  0  0  0  0  0  0  0  0  0  0
  -17.3482   43.3274  -21.0953 N   0  0  0  0  0  0  0  0  0  0  0  0
  -16.4514   44.0688  -20.2925 C   0  0  0  0  0  0  0  0  0  0  0  0
  -16.0885   45.3216  -20.7825 C   0  0  0  0  0  0  0  0  0  0  0  0
  -15.2295   46.0855  -20.0519 C   0  0  0  0  0  0  0  0  0  0  0  0
  -14.7319   45.6274  -18.8553 C   0  0  0  0  0  0  0  0  0  0  0  0
  -15.0959   44.3987  -18.3879 C   0  0  0  0  0  0  0  0  0  0  0  0
  -14.5716   43.8690  -17.0814 C   0  0  0  0  0  0  0  0  0  0  0  0
  -13.2783   43.4715  -17.2500 F   0  0  0  0  0  0  0  0  0  0  0  0
  -14.6481   44.9150  -16.1804 F   0  0  0  0  0  0  0  0  0  0  0  0
  -15.3820   42.8626  -16.5961 F   0  0  0  0  0  0  0  0  0  0  0  0
  -15.9550   43.6029  -19.0915 C   0  0  0  0  0  0  0  0  0  0  0  0
  -16.7951   42.4482  -22.0548 C   0  0  0  0  0  0  0  0  0  0  0  0
  -15.5783   42.2639  -22.2595 O   0  0  0  0  0  0  0  0  0  0  0  0
  -17.7206   41.7229  -22.8421 N   0  0  0  0  0  0  0  0  0  0  0  0
  -19.0904   41.6841  -22.5323 C   0  0  1  0  0  0  0  0  0  0  0  0
  -19.4099   40.3452  -22.0054 C   0  0  0  0  0  0  0  0  0  0  0  0
  -19.0916   40.0698  -20.6986 C   0  0  0  0  0  0  0  0  0  0  0  0
  -19.3809   38.8084  -20.1496 C   0  0  0  0  0  0  0  0  0  0  0  0
  -19.9881   37.8469  -20.9344 C   0  0  0  0  0  0  0  0  0  0  0  0
  -20.2814   36.5489  -20.3530 C   0  0  0  0  0  0  0  0  0  0  0  0
  -20.4973   35.5241  -19.9086 N   0  0  0  0  0  0  0  0  0  0  0  0
  -20.2834   38.1447  -22.1956 N   0  0  0  0  0  0  0  0  0  0  0  0
  -20.0109   39.3647  -22.7492 C   0  0  0  0  0  0  0  0  0  0  0  0
  1  2  1  0
  2  3  2  0
  2  4  1  0
  4  5  2  0
  5  6  1  0
  5  7  1  0
  7  8  1  0
  8  9  2  0
  9 10  1  0
 10 11  2  0
 11 12  1  0
 12 13  1  0
 13 14  1  0
 13 15  1  0
 13 16  1  0
 12 17  2  0
  7 18  1  0
 18 19  2  0
 18 20  1  0
 20 21  1  0
 21 22  1  1
 22 23  2  0
 23 24  1  0
 24 25  2  0
 25 26  1  0
 26 27  3  0
 25 28  1  0
 28 29  2  0
 21  4  1  0
 29 22  1  0
 17  8  1  0
M  END
$$$$
