
     RDKit          3D

 38 41  0  0  0  0  0  0  0  0999 V2000
  -15.0349   14.6914  -37.1866 C   0  0  0  0  0  0  0  0  0  0  0  0
  -14.8601   16.1804  -37.2725 C   0  0  0  0  0  0  0  0  0  0  0  0
  -15.1746   16.8599  -38.4244 C   0  0  0  0  0  0  0  0  0  0  0  0
  -15.0168   18.2222  -38.5082 C   0  0  0  0  0  0  0  0  0  0  0  0
  -15.3368   18.9499  -39.6875 N   0  0  0  0  0  0  0  0  0  0  0  0
  -15.3425   18.3786  -40.9848 C   0  0  0  0  0  0  0  0  0  0  0  0
  -15.1653   17.1248  -41.0529 O   0  0  0  0  0  0  0  0  0  0  0  0
  -15.5342   19.1218  -42.2077 C   0  0  0  0  0  0  0  0  0  0  0  0
  -16.6633   18.8854  -42.9728 C   0  0  0  0  0  0  0  0  0  0  0  0
  -16.9170   19.5486  -44.1398 C   0  0  0  0  0  0  0  0  0  0  0  0
  -15.9830   20.5061  -44.5657 C   0  0  0  0  0  0  0  0  0  0  0  0
  -14.8546   20.7801  -43.8536 C   0  0  0  0  0  0  0  0  0  0  0  0
  -13.9175   21.7358  -44.2646 N   0  0  0  0  0  0  0  0  0  0  0  0
  -14.1072   23.0181  -44.7756 C   0  0  0  0  0  0  0  0  0  0  0  0
  -15.2783   23.4045  -44.9852 O   0  0  0  0  0  0  0  0  0  0  0  0
  -13.0240   23.9468  -45.0852 C   0  0  0  0  0  0  0  0  0  0  0  0
  -13.1744   25.1194  -45.6575 C   0  0  0  0  0  0  0  0  0  0  0  0
  -12.0874   26.1441  -45.7090 C   0  0  0  0  0  0  0  0  0  0  0  0
  -12.4784   27.3298  -46.4138 N   0  0  0  0  0  0  0  0  0  0  0  0
  -11.7036   28.4972  -46.1052 C   0  0  0  0  0  0  0  0  0  0  0  0
  -12.6518   27.1251  -47.8216 C   0  0  0  0  0  0  0  0  0  0  0  0
  -14.6541   20.0665  -42.6681 C   0  0  0  0  0  0  0  0  0  0  0  0
  -14.5383   18.8631  -37.4065 C   0  0  0  0  0  0  0  0  0  0  0  0
  -14.2160   18.1761  -36.2295 C   0  0  0  0  0  0  0  0  0  0  0  0
  -14.3653   16.8111  -36.1202 C   0  0  0  0  0  0  0  0  0  0  0  0
  -14.0672   16.0453  -34.9851 N   0  0  0  0  0  0  0  0  0  0  0  0
  -14.8447   15.8841  -33.8235 C   0  0  0  0  0  0  0  0  0  0  0  0
  -14.3355   15.9072  -32.5880 N   0  0  0  0  0  0  0  0  0  0  0  0
  -15.0313   15.7620  -31.4686 C   0  0  0  0  0  0  0  0  0  0  0  0
  -16.4159   15.5677  -31.5746 C   0  0  0  0  0  0  0  0  0  0  0  0
  -16.9800   15.5374  -32.8262 C   0  0  0  0  0  0  0  0  0  0  0  0
  -18.4206   15.3368  -32.9708 C   0  0  0  0  0  0  0  0  0  0  0  0
  -19.0891   15.9594  -34.0245 C   0  0  0  0  0  0  0  0  0  0  0  0
  -20.4530   15.8115  -34.2186 C   0  0  0  0  0  0  0  0  0  0  0  0
  -21.1712   15.0254  -33.3441 C   0  0  0  0  0  0  0  0  0  0  0  0
  -20.5255   14.4271  -32.3305 N   0  0  0  0  0  0  0  0  0  0  0  0
  -19.1779   14.5663  -32.1294 C   0  0  0  0  0  0  0  0  0  0  0  0
  -16.1844   15.6948  -33.8945 N   0  0  0  0  0  0  0  0  0  0  0  0
  1  2  1  0
  2  3  2  0
  3  4  1  0
  4  5  1  0
  5  6  1  0
  6  7  2  0
  6  8  1  0
  8  9  2  0
  9 10  1  0
 10 11  2  0
 11 12  1  0
 12 13  1  0
 13 14  1  0
 14 15  2  0
 14 16  1  0
 16 17  2  0
 17 18  1  0
 18 19  1  0
 19 20  1  0
 19 21  1  0
 12 22  2  0
  4 23  2  0
 23 24  1  0
 24 25  2  0
 25 26  1  0
 26 27  1  0
 27 28  2  0
 28 29  1  0
 29 30  2  0
 30 31  1  0
 31 32  1  0
 32 33  2  0
 33 34  1  0
 34 35  2  0
 35 36  1  0
 36 37  2  0
 31 38  2  0
 25  2  1  0
 38 27  1  0
 22  8  1  0
 37 32  1  0
M  END
$$$$
