
     RDKit          3D

 23 24  0  0  0  0  0  0  0  0999 V2000
  -20.4140   46.8747  -20.7040 C   0  0  0  0  0  0  0  0  0  0  0  0
  -20.2123   45.4288  -21.1312 C   0  0  0  0  0  0  0  0  0  0  0  0
  -21.2248   44.7661  -21.4326 O   0  0  0  0  0  0  0  0  0  0  0  0
  -18.9299   44.9023  -21.1711 N   0  0  0  0  0  0  0  0  0  0  0  0
  -18.6168   43.5698  -21.5344 C   0  0  0  0  0  0  0  0  0  0  0  0
  -19.5880   42.8160  -22.2273 C   0  0  0  0  0  0  0  0  0  0  0  0
  -19.3665   41.5199  -22.6162 C   0  0  0  0  0  0  0  0  0  0  0  0
  -18.1852   40.8623  -22.3600 C   0  0  0  0  0  0  0  0  0  0  0  0
  -17.8969   39.2121  -22.8531 S   0  0  0  0  0  6  0  0  0  0  0  0
  -18.7796   38.8135  -24.0043 O   0  0  0  0  0  0  0  0  0  0  0  0
  -16.4784   39.0490  -23.3135 O   0  0  0  0  0  0  0  0  0  0  0  0
  -18.1551   38.0977  -21.5701 N   0  0  0  0  0  0  0  0  0  0  0  0
  -19.6016   37.8413  -21.5222 C   0  0  0  0  0  0  0  0  0  0  0  0
  -20.0500   36.9594  -22.6344 C   0  0  0  0  0  0  0  0  0  0  0  0
  -21.7431   36.4257  -22.3403 S   0  0  0  0  0  0  0  0  0  0  0  0
  -22.9497   37.2832  -23.3091 C   0  0  0  0  0  0  0  0  0  0  0  0
  -22.7378   38.5283  -23.8373 C   0  0  0  0  0  0  0  0  0  0  0  0
  -23.7073   39.1379  -24.5893 C   0  0  0  0  0  0  0  0  0  0  0  0
  -24.9052   38.5019  -24.8200 C   0  0  0  0  0  0  0  0  0  0  0  0
  -25.0957   37.2455  -24.2758 C   0  0  0  0  0  0  0  0  0  0  0  0
  -24.1242   36.6753  -23.5430 N   0  0  0  0  0  0  0  0  0  0  0  0
  -17.2337   41.5875  -21.6861 C   0  0  0  0  0  0  0  0  0  0  0  0
  -17.4450   42.9136  -21.2817 C   0  0  0  0  0  0  0  0  0  0  0  0
  1  2  1  0
  2  3  2  0
  2  4  1  0
  4  5  1  0
  5  6  2  0
  6  7  1  0
  7  8  2  0
  8  9  1  0
  9 10  2  0
  9 11  2  0
  9 12  1  0
 12 13  1  0
 13 14  1  0
 14 15  1  0
 15 16  1  0
 16 17  2  0
 17 18  1  0
 18 19  2  0
 19 20  1  0
 20 21  2  0
  8 22  1  0
 22 23  2  0
 23  5  1  0
 21 16  1  0
M  END
$$$$
