
     RDKit          3D

 30 34  0  0  0  0  0  0  0  0999 V2000
  -19.2744   41.6887  -21.3354 O   0  0  0  0  0  0  0  0  0  0  0  0
  -19.1396   40.5441  -20.8373 C   0  0  0  0  0  0  0  0  0  0  0  0
  -18.4687   40.4411  -19.5900 N   0  0  0  0  0  0  0  0  0  0  0  0
  -17.4616   41.3931  -19.1940 C   0  0  0  0  0  0  0  0  0  0  0  0
  -16.4517   41.1227  -18.3483 N   0  0  0  0  0  0  0  0  0  0  0  0
  -15.7404   42.2602  -18.2389 C   0  0  0  0  0  0  0  0  0  0  0  0
  -14.6017   42.5646  -17.5086 C   0  0  0  0  0  0  0  0  0  0  0  0
  -14.0480   43.8264  -17.5616 C   0  0  0  0  0  0  0  0  0  0  0  0
  -14.6622   44.7583  -18.3570 C   0  0  0  0  0  0  0  0  0  0  0  0
  -15.8091   44.4676  -19.0984 C   0  0  0  0  0  0  0  0  0  0  0  0
  -16.3938   45.5018  -19.9100 C   0  0  0  0  0  0  0  0  0  0  0  0
  -16.0192   45.6987  -21.2140 C   0  0  0  0  0  0  0  0  0  0  0  0
  -16.5846   46.7015  -22.0071 C   0  0  0  0  0  0  0  0  0  0  0  0
  -17.5393   47.5308  -21.5119 C   0  0  0  0  0  0  0  0  0  0  0  0
  -18.1499   48.5879  -22.3339 C   0  0  0  0  0  0  0  0  0  0  0  0
  -19.5118   48.3612  -22.7161 N   0  0  0  0  0  0  0  0  0  0  0  0
  -20.1583   49.6385  -22.9400 C   0  0  0  0  0  0  0  0  0  0  0  0
  -21.4256   49.5581  -23.7204 C   0  0  0  0  0  0  0  0  0  0  0  0
  -22.2363   48.0131  -23.3778 S   0  0  0  0  0  6  0  0  0  0  0  0
  -23.4281   47.8229  -24.2919 O   0  0  0  0  0  0  0  0  0  0  0  0
  -22.7042   48.0700  -21.9500 O   0  0  0  0  0  0  0  0  0  0  0  0
  -21.0281   46.7317  -23.6128 C   0  0  0  0  0  0  0  0  0  0  0  0
  -19.6741   47.4401  -23.7840 C   0  0  0  0  0  0  0  0  0  0  0  0
  -17.9294   47.3478  -20.2003 C   0  0  0  0  0  0  0  0  0  0  0  0
  -17.3732   46.3592  -19.4153 C   0  0  0  0  0  0  0  0  0  0  0  0
  -16.2809   43.2249  -18.9919 N   0  0  0  0  0  0  0  0  0  0  0  0
  -17.3347   42.6738  -19.5693 N   0  0  0  0  0  0  0  0  0  0  0  0
  -19.6799   39.3882  -21.5695 C   0  0  0  0  0  0  0  0  0  0  0  0
  -21.2021   39.4900  -21.7909 C   0  0  0  0  0  0  0  0  0  0  0  0
  -20.2322   39.5332  -22.9377 C   0  0  0  0  0  0  0  0  0  0  0  0
  1  2  2  0
  2  3  1  0
  3  4  1  0
  4  5  1  0
  5  6  2  0
  6  7  1  0
  7  8  2  0
  8  9  1  0
  9 10  2  0
 10 11  1  0
 11 12  2  0
 12 13  1  0
 13 14  2  0
 14 15  1  0
 15 16  1  0
 16 17  1  0
 17 18  1  0
 18 19  1  0
 19 20  2  0
 19 21  2  0
 19 22  1  0
 22 23  1  0
 14 24  1  0
 24 25  2  0
 10 26  1  0
 26 27  1  0
  2 28  1  0
 28 29  1  0
 29 30  1  0
 27  4  2  0
 30 28  1  0
 26  6  1  0
 25 11  1  0
 23 16  1  0
M  END
$$$$
