
     RDKit          3D

 27 30  0  0  0  0  0  0  0  0999 V2000
  -18.0133   14.3518  -28.8303 O   0  0  0  0  0  0  0  0  0  0  0  0
  -17.7153   15.1145  -29.8159 C   0  0  0  0  0  0  0  0  0  0  0  0
  -16.3580   15.1012  -30.2234 N   0  0  0  0  0  0  0  0  0  0  0  0
  -15.4575   14.2191  -29.5634 C   0  0  0  0  0  0  0  0  0  0  0  0
  -14.2611   13.8494  -30.1657 C   0  0  0  0  0  0  0  0  0  0  0  0
  -13.3720   12.9964  -29.5471 C   0  0  0  0  0  0  0  0  0  0  0  0
  -13.6329   12.4721  -28.3006 C   0  0  0  0  0  0  0  0  0  0  0  0
  -12.5132   11.3829  -27.4940 Cl  0  0  0  0  0  0  0  0  0  0  0  0
  -14.8175   12.8315  -27.6919 C   0  0  0  0  0  0  0  0  0  0  0  0
  -15.7014   13.6840  -28.3151 C   0  0  0  0  0  0  0  0  0  0  0  0
  -18.7327   15.9310  -30.4545 C   0  0  0  0  0  0  0  0  0  0  0  0
  -18.4261   17.2149  -30.8433 C   0  0  0  0  0  0  0  0  0  0  0  0
  -19.3950   17.9896  -31.4505 C   0  0  0  0  0  0  0  0  0  0  0  0
  -20.6739   17.5254  -31.6869 C   0  0  0  0  0  0  0  0  0  0  0  0
  -21.6666   18.3972  -32.3384 C   0  0  0  0  0  0  0  0  0  0  0  0
  -22.4284   17.6649  -33.2938 N   0  0  0  0  0  0  0  0  0  0  0  0
  -23.8449   17.7794  -33.2055 C   0  0  0  0  0  0  0  0  0  0  0  0
  -24.3696   19.1135  -33.6736 C   0  0  0  0  0  0  0  0  0  0  0  0
  -23.7249   19.5246  -34.9322 C   0  0  0  0  0  0  0  0  0  0  0  0
  -24.2862   20.5398  -35.6767 C   0  0  0  0  0  0  0  0  0  0  0  0
  -23.7422   20.9776  -36.8608 C   0  0  0  0  0  0  0  0  0  0  0  0
  -22.5894   20.3703  -37.3125 C   0  0  0  0  0  0  0  0  0  0  0  0
  -22.0304   19.3469  -36.5544 C   0  0  0  0  0  0  0  0  0  0  0  0
  -22.5906   18.9187  -35.3655 C   0  0  0  0  0  0  0  0  0  0  0  0
  -21.9243   17.8327  -34.6413 C   0  0  0  0  0  0  0  0  0  0  0  0
  -20.9739   16.2375  -31.2945 C   0  0  0  0  0  0  0  0  0  0  0  0
  -19.9940   15.4490  -30.6786 C   0  0  0  0  0  0  0  0  0  0  0  0
  1  2  2  0
  2  3  1  0
  3  4  1  0
  4  5  2  0
  5  6  1  0
  6  7  2  0
  7  8  1  0
  7  9  1  0
  9 10  2  0
  2 11  1  0
 11 12  2  0
 12 13  1  0
 13 14  2  0
 14 15  1  0
 15 16  1  0
 16 17  1  0
 17 18  1  0
 18 19  1  0
 19 20  2  0
 20 21  1  0
 21 22  2  0
 22 23  1  0
 23 24  2  0
 24 25  1  0
 14 26  1  0
 26 27  2  0
 10  4  1  0
 27 11  1  0
 25 16  1  0
 24 19  1  0
M  END
$$$$
