
     RDKit          3D

 32 33  0  0  0  0  0  0  0  0999 V2000
  -18.9714   22.4322  -42.0589 C   0  0  0  0  0  0  0  0  0  0  0  0
  -19.1871   21.1609  -41.3548 N   0  0  0  0  0  0  0  0  0  0  0  0
  -20.4219   20.8920  -40.7132 C   0  0  0  0  0  0  0  0  0  0  0  0
  -21.3596   20.4420  -41.4276 O   0  0  0  0  0  0  0  0  0  0  0  0
  -20.5449   21.1466  -39.2726 C   0  0  2  0  0  0  0  0  0  0  0  0
  -20.0968   22.5413  -38.9319 C   0  0  0  0  0  0  0  0  0  0  0  0
  -20.5878   22.9691  -37.6062 C   0  0  0  0  0  0  0  0  0  0  0  0
  -20.1576   24.1429  -37.0451 C   0  0  0  0  0  0  0  0  0  0  0  0
  -20.6291   24.5114  -35.8170 C   0  0  0  0  0  0  0  0  0  0  0  0
  -21.5225   23.7492  -35.1165 C   0  0  0  0  0  0  0  0  0  0  0  0
  -21.9526   22.5687  -35.6853 C   0  0  0  0  0  0  0  0  0  0  0  0
  -21.4890   22.1808  -36.9213 C   0  0  0  0  0  0  0  0  0  0  0  0
  -19.7848   20.1946  -38.4758 N   0  0  0  0  0  0  0  0  0  0  0  0
  -20.1785   18.8251  -38.4100 C   0  0  0  0  0  0  0  0  0  0  0  0
  -21.3799   18.5623  -38.5867 O   0  0  0  0  0  0  0  0  0  0  0  0
  -19.1259   17.7387  -38.1286 C   0  0  2  0  0  0  0  0  0  0  0  0
  -19.8832   16.5906  -37.6973 C   0  0  0  0  0  0  0  0  0  0  0  0
  -20.9480   16.5360  -36.7114 C   0  0  0  0  0  0  0  0  0  0  0  0
  -21.7927   17.7986  -36.6854 C   0  0  0  0  0  0  0  0  0  0  0  0
  -21.8212   15.3619  -36.5735 C   0  0  0  0  0  0  0  0  0  0  0  0
  -18.2386   18.3879  -37.0668 C   0  0  2  0  0  0  0  0  0  0  0  0
  -17.2569   19.3141  -37.7766 C   0  0  0  0  0  0  0  0  0  0  0  0
  -16.1549   20.1847  -36.7505 S   0  0  0  0  0  0  0  0  0  0  0  0
  -16.5813   20.8055  -35.2234 C   0  0  0  0  0  0  0  0  0  0  0  0
  -16.5360   20.4096  -33.9099 C   0  0  0  0  0  0  0  0  0  0  0  0
  -16.9648   21.1863  -32.9294 C   0  0  0  0  0  0  0  0  0  0  0  0
  -17.4804   22.4465  -33.2261 C   0  0  0  0  0  0  0  0  0  0  0  0
  -17.3346   22.5063  -35.0266 S   0  0  0  0  0  0  0  0  0  0  0  0
  -17.3905   17.3188  -36.4670 C   0  0  0  0  0  0  0  0  0  0  0  0
  -16.7952   17.5143  -35.3791 O   0  0  0  0  0  0  0  0  0  0  0  0
  -17.1999   16.0466  -37.0714 N   0  0  0  0  0  0  0  0  0  0  0  0
  -17.9137   14.9525  -36.6961 O   0  0  0  0  0  0  0  0  0  0  0  0
  1  2  1  0
  2  3  1  0
  3  4  2  0
  3  5  1  0
  5  6  1  6
  6  7  1  0
  7  8  2  0
  8  9  1  0
  9 10  2  0
 10 11  1  0
 11 12  2  0
  5 13  1  0
 13 14  1  0
 14 15  2  0
 14 16  1  0
 16 17  1  1
 17 18  1  0
 18 19  1  0
 18 20  1  0
 16 21  1  0
 21 22  1  6
 22 23  1  0
 23 24  1  0
 24 25  2  0
 25 26  1  0
 26 27  2  0
 27 28  1  0
 21 29  1  0
 29 30  2  0
 29 31  1  0
 31 32  1  0
 12  7  1  0
 28 24  1  0
M  END
$$$$
