
     RDKit          3D

 19 20  0  0  0  0  0  0  0  0999 V2000
  -21.7802    2.5504  -30.6836 C   0  0  0  0  0  0  0  0  0  0  0  0
  -20.5609    1.8752  -31.0985 N   0  0  0  0  0  4  0  0  0  0  0  0
  -20.5423    0.5917  -31.4905 C   0  0  0  0  0  0  0  0  0  0  0  0
  -19.3870   -0.0517  -31.8848 C   0  0  0  0  0  0  0  0  0  0  0  0
  -18.1682    0.6232  -31.8906 C   0  0  0  0  0  0  0  0  0  0  0  0
  -16.9650   -0.0860  -32.3131 C   0  0  0  0  0  0  0  0  0  0  0  0
  -15.7941    0.4777  -32.3444 C   0  0  0  0  0  0  0  0  0  0  0  0
  -14.6267   -0.3030  -32.7823 C   0  0  0  0  0  0  0  0  0  0  0  0
  -14.5851   -1.6207  -33.1886 C   0  0  0  0  0  0  0  0  0  0  0  0
  -13.3276   -1.9504  -33.5055 N   0  0  0  0  0  0  0  0  0  0  0  0
  -12.5015   -0.8954  -33.3284 C   0  0  0  0  0  0  0  0  0  0  0  0
  -11.1515   -0.7067  -33.5042 C   0  0  0  0  0  0  0  0  0  0  0  0
  -10.6219    0.5288  -33.2213 C   0  0  0  0  0  0  0  0  0  0  0  0
  -11.4174    1.5815  -32.7652 C   0  0  0  0  0  0  0  0  0  0  0  0
  -12.7621    1.3653  -32.5987 C   0  0  0  0  0  0  0  0  0  0  0  0
  -13.3220    0.1347  -32.8748 C   0  0  0  0  0  0  0  0  0  0  0  0
  -18.1980    1.9359  -31.4878 C   0  0  0  0  0  0  0  0  0  0  0  0
  -19.3971    2.5451  -31.0964 C   0  0  0  0  0  0  0  0  0  0  0  0
  -16.2871    0.4463  -32.4876 I   0  0  0  0  0 15  0  0  0  0  0  0
  1  2  1  0
  2  3  2  0
  3  4  1  0
  4  5  2  0
  5  6  1  0
  6  7  2  0
  7  8  1  0
  8  9  2  0
  9 10  1  0
 10 11  1  0
 11 12  2  0
 12 13  1  0
 13 14  2  0
 14 15  1  0
 15 16  2  0
  5 17  1  0
 17 18  2  0
 18  2  1  0
 16  8  1  0
 16 11  1  0
M  CHG  2   2   1  19  -1
M  END
$$$$
