
     RDKit          3D

  7  6  0  0  0  0  0  0  0  0999 V2000
  -19.5527   33.4354  -22.7665 N   0  0  0  0  0  0  0  0  0  0  0  0
  -18.3678   34.0427  -22.1873 C   0  0  0  0  0  0  0  0  0  0  0  0
  -18.5307   35.5291  -22.2733 C   0  0  0  0  0  0  0  0  0  0  0  0
  -18.0054   36.2757  -21.0973 C   0  0  0  0  0  0  0  0  0  0  0  0
  -17.7369   37.6944  -21.3275 C   0  0  0  0  0  0  0  0  0  0  0  0
  -16.8431   37.9952  -22.1624 O   0  0  0  0  0  0  0  0  0  0  0  0
  -18.3802   38.7559  -20.7067 O   0  0  0  0  0  0  0  0  0  0  0  0
  1  2  1  0
  2  3  1  0
  3  4  1  0
  4  5  1  0
  5  6  2  0
  5  7  1  0
M  END
$$$$
