
     RDKit          3D

 35 38  0  0  0  0  0  0  0  0999 V2000
  -16.1540   15.3170  -28.7925 C   0  0  0  0  0  0  0  0  0  0  0  0
  -16.1810   14.1167  -29.6653 C   0  0  0  0  0  0  0  0  0  0  0  0
  -17.0388   14.1114  -30.7357 C   0  0  0  0  0  0  0  0  0  0  0  0
  -17.9167   15.2422  -31.0112 C   0  0  0  0  0  0  0  0  0  0  0  0
  -17.7114   16.0070  -32.0166 O   0  0  0  0  0  0  0  0  0  0  0  0
  -19.0459   15.5986  -30.2242 N   0  0  0  0  0  0  0  0  0  0  0  0
  -20.0373   16.4948  -30.6706 C   0  0  0  0  0  0  0  0  0  0  0  0
  -19.7074   17.7722  -31.0209 C   0  0  0  0  0  0  0  0  0  0  0  0
  -20.7140   18.6535  -31.4480 C   0  0  0  0  0  0  0  0  0  0  0  0
  -22.0370   18.2375  -31.5154 C   0  0  0  0  0  0  0  0  0  0  0  0
  -23.0540   19.1336  -31.9136 N   0  0  0  0  0  0  0  0  0  0  0  0
  -23.0496   20.5435  -31.6292 C   0  0  0  0  0  0  0  0  0  0  0  0
  -23.1649   21.2397  -32.9701 C   0  0  2  0  0  0  0  0  0  0  0  0
  -23.0418   22.7506  -32.8022 C   0  0  0  0  0  0  0  0  0  0  0  0
  -24.2581   20.8695  -33.6747 O   0  0  0  0  0  0  0  0  0  0  0  0
  -24.9714   19.7778  -33.3034 C   0  0  2  0  0  0  0  0  0  0  0  0
  -26.1507   20.1514  -32.3937 C   0  0  0  0  0  0  0  0  0  0  0  0
  -24.1915   18.6565  -32.6628 C   0  0  0  0  0  0  0  0  0  0  0  0
  -22.3089   16.9704  -31.1608 N   0  0  0  0  0  0  0  0  0  0  0  0
  -21.3420   16.0924  -30.7408 C   0  0  0  0  0  0  0  0  0  0  0  0
  -17.0421   12.9831  -31.5568 C   0  0  0  0  0  0  0  0  0  0  0  0
  -16.2404   11.8934  -31.3486 C   0  0  0  0  0  0  0  0  0  0  0  0
  -15.3963   11.9361  -30.2675 C   0  0  0  0  0  0  0  0  0  0  0  0
  -15.3566   13.0343  -29.4226 C   0  0  0  0  0  0  0  0  0  0  0  0
  -14.4595   13.0580  -28.2716 C   0  0  0  0  0  0  0  0  0  0  0  0
  -14.7520   12.5222  -27.0391 C   0  0  0  0  0  0  0  0  0  0  0  0
  -13.8534   12.5878  -25.9755 C   0  0  0  0  0  0  0  0  0  0  0  0
  -12.6247   13.1963  -26.1154 C   0  0  0  0  0  0  0  0  0  0  0  0
  -11.7228   13.2593  -25.0408 O   0  0  0  0  0  0  0  0  0  0  0  0
  -10.7616   12.2042  -24.8941 C   0  0  0  0  0  0  0  0  0  0  0  0
   -9.8330   12.3620  -25.9063 F   0  0  0  0  0  0  0  0  0  0  0  0
  -10.0617   12.3335  -23.7033 F   0  0  0  0  0  0  0  0  0  0  0  0
  -11.3391   10.9724  -25.0177 F   0  0  0  0  0  0  0  0  0  0  0  0
  -12.3169   13.7373  -27.3418 C   0  0  0  0  0  0  0  0  0  0  0  0
  -13.2060   13.6711  -28.3902 C   0  0  0  0  0  0  0  0  0  0  0  0
  1  2  1  0
  2  3  2  0
  3  4  1  0
  4  5  2  0
  4  6  1  0
  6  7  1  0
  7  8  2  0
  8  9  1  0
  9 10  2  0
 10 11  1  0
 11 12  1  0
 12 13  1  0
 13 14  1  1
 13 15  1  0
 15 16  1  0
 16 17  1  1
 16 18  1  0
 10 19  1  0
 19 20  2  0
  3 21  1  0
 21 22  2  0
 22 23  1  0
 23 24  2  0
 24 25  1  0
 25 26  2  0
 26 27  1  0
 27 28  2  0
 28 29  1  0
 29 30  1  0
 30 31  1  0
 30 32  1  0
 30 33  1  0
 28 34  1  0
 34 35  2  0
 24  2  1  0
 35 25  1  0
 20  7  1  0
 18 11  1  0
M  END
$$$$
