
     RDKit          3D

 19 19  0  0  0  0  0  0  0  0999 V2000
  -16.7085   17.3668  -33.1630 C   0  0  0  0  0  0  0  0  0  0  0  0
  -15.9313   16.3107  -33.9186 C   0  0  0  0  0  0  0  0  0  0  0  0
  -15.5194   15.2077  -32.9863 C   0  0  0  0  0  0  0  0  0  0  0  0
  -14.8639   16.9358  -34.6080 N   0  0  0  0  0  0  0  0  0  0  0  0
  -15.2019   17.9414  -35.5534 C   0  0  0  0  0  0  0  0  0  0  0  0
  -15.6767   17.2932  -36.8512 C   0  0  0  0  0  0  0  0  0  0  0  0
  -14.8157   16.3316  -37.3199 O   0  0  0  0  0  0  0  0  0  0  0  0
  -15.9298   18.3763  -37.8518 C   0  0  0  0  0  0  0  0  0  0  0  0
  -16.5412   17.9301  -39.0330 O   0  0  0  0  0  0  0  0  0  0  0  0
  -17.0108   18.8408  -39.9463 C   0  0  0  0  0  0  0  0  0  0  0  0
  -18.3346   19.1817  -39.9578 C   0  0  0  0  0  0  0  0  0  0  0  0
  -18.8542   20.1066  -40.8713 C   0  0  0  0  0  0  0  0  0  0  0  0
  -18.0086   20.6902  -41.7848 C   0  0  0  0  0  0  0  0  0  0  0  0
  -18.5354   21.6707  -42.7585 C   0  0  0  0  0  0  0  0  0  0  0  0
  -18.6026   23.0372  -42.1829 C   0  0  0  0  0  0  0  0  0  0  0  0
  -17.6117   23.9746  -42.5655 N   0  0  0  0  0  0  0  0  0  0  0  0
  -19.5141   23.3445  -41.3812 O   0  0  0  0  0  0  0  0  0  0  0  0
  -16.6851   20.3388  -41.7618 C   0  0  0  0  0  0  0  0  0  0  0  0
  -16.1564   19.4151  -40.8521 C   0  0  0  0  0  0  0  0  0  0  0  0
  1  2  1  0
  2  3  1  0
  2  4  1  0
  4  5  1  0
  5  6  1  0
  6  7  1  0
  6  8  1  0
  8  9  1  0
  9 10  1  0
 10 11  2  0
 11 12  1  0
 12 13  2  0
 13 14  1  0
 14 15  1  0
 15 16  1  0
 15 17  2  0
 13 18  1  0
 18 19  2  0
 19 10  1  0
M  END
$$$$
