
     RDKit          3D

 20 23  0  0  0  0  0  0  0  0999 V2000
  -19.1883   38.7445  -20.6788 C   0  0  0  0  0  0  0  0  0  0  0  0
  -19.4397   39.2441  -22.0764 C   0  0  2  0  0  0  0  0  0  0  0  0
  -18.1783   39.6165  -22.7890 C   0  0  0  0  0  0  0  0  0  0  0  0
  -17.4630   40.6212  -21.8859 C   0  0  0  0  0  0  0  0  0  0  0  0
  -18.2982   41.8640  -21.8223 C   0  0  2  0  0  0  0  0  0  0  0  0
  -17.7015   42.9168  -20.9959 C   0  0  0  0  0  0  0  0  0  0  0  0
  -16.4141   42.8793  -20.5067 C   0  0  0  0  0  0  0  0  0  0  0  0
  -15.9111   43.9048  -19.7323 C   0  0  0  0  0  0  0  0  0  0  0  0
  -16.6948   45.0103  -19.4229 C   0  0  0  0  0  0  0  0  0  0  0  0
  -16.2548   46.0604  -18.6597 O   0  0  0  0  0  0  0  0  0  0  0  0
  -17.9808   45.0355  -19.9185 C   0  0  0  0  0  0  0  0  0  0  0  0
  -18.4752   44.0121  -20.6883 C   0  0  0  0  0  0  0  0  0  0  0  0
  -19.8662   44.1330  -21.1722 C   0  0  0  0  0  0  0  0  0  0  0  0
  -20.5019   42.8708  -21.6135 C   0  0  0  0  0  0  0  0  0  0  0  0
  -19.7017   41.6201  -21.3151 C   0  0  1  0  0  0  0  0  0  0  0  0
  -20.3186   40.5033  -22.0668 C   0  0  2  0  0  0  0  0  0  0  0  0
  -21.5756   39.9475  -21.5054 C   0  0  0  0  0  0  0  0  0  0  0  0
  -21.6909   38.5865  -22.1605 C   0  0  0  0  0  0  0  0  0  0  0  0
  -20.3405   38.3268  -22.8323 C   0  0  2  0  0  0  0  0  0  0  0  0
  -19.9770   37.0048  -22.7781 O   0  0  0  0  0  0  0  0  0  0  0  0
  2  1  1  1
  2  3  1  0
  3  4  1  0
  5  4  1  1
  5  6  1  0
  6  7  2  0
  7  8  1  0
  8  9  2  0
  9 10  1  0
  9 11  1  0
 11 12  2  0
 12 13  1  0
 13 14  1  0
 15 14  1  6
 15 16  1  0
 16 17  1  1
 17 18  1  0
 18 19  1  0
 19 20  1  1
 16  2  1  0
 19  2  1  0
 15  5  1  0
 12  6  1  0
M  END
$$$$
