
     RDKit          3D

 15 17  0  0  0  0  0  0  0  0999 V2000
  -11.1388   11.4179  -26.9330 C   0  0  0  0  0  0  0  0  0  0  0  0
  -12.3381   11.9298  -26.4395 O   0  0  0  0  0  0  0  0  0  0  0  0
  -13.3838   12.4124  -27.1844 C   0  0  0  0  0  0  0  0  0  0  0  0
  -14.6261   12.4670  -26.5914 C   0  0  0  0  0  0  0  0  0  0  0  0
  -15.7547   12.9345  -27.2435 C   0  0  0  0  0  0  0  0  0  0  0  0
  -15.6485   13.3711  -28.5518 C   0  0  0  0  0  0  0  0  0  0  0  0
  -16.5495   13.8698  -29.4300 N   0  0  0  0  0  0  0  0  0  0  0  0
  -15.9533   14.1473  -30.5802 C   0  0  0  0  0  0  0  0  0  0  0  0
  -14.6219   13.8157  -30.4378 C   0  0  0  0  0  0  0  0  0  0  0  0
  -14.4045   13.3172  -29.1481 C   0  0  0  0  0  0  0  0  0  0  0  0
  -13.2895   12.8489  -28.4856 C   0  0  0  0  0  0  0  0  0  0  0  0
  -13.6340   13.9878  -31.5238 C   0  0  0  0  0  0  0  0  0  0  0  0
  -14.0805   14.9415  -32.5774 C   0  0  0  0  0  0  0  0  0  0  0  0
  -15.3063   15.6205  -32.2976 N   0  0  0  0  0  0  0  0  0  0  0  0
  -16.3573   14.6983  -31.9070 C   0  0  0  0  0  0  0  0  0  0  0  0
  1  2  1  0
  2  3  1  0
  3  4  2  0
  4  5  1  0
  5  6  2  0
  6  7  1  0
  7  8  1  0
  8  9  2  0
  9 10  1  0
 10 11  2  0
  9 12  1  0
 12 13  1  0
 13 14  1  0
 14 15  1  0
 11  3  1  0
 10  6  1  0
 15  8  1  0
M  END
$$$$
