
     RDKit          3D

 24 27  0  0  0  0  0  0  0  0999 V2000
  -20.5741   38.3004  -21.7179 N   0  0  0  0  0  0  0  0  0  0  0  0
  -20.6658   39.7075  -21.4645 C   0  0  0  0  0  0  0  0  0  0  0  0
  -19.4408   40.4614  -21.9323 C   0  0  0  0  0  0  0  0  0  0  0  0
  -19.7419   41.8306  -22.4419 C   0  0  0  0  0  0  0  0  0  0  0  0
  -19.3675   42.9372  -21.4799 C   0  0  0  0  0  0  0  0  0  0  0  0
  -17.9538   42.8401  -21.2160 N   0  0  0  0  0  0  0  0  0  0  0  0
  -17.1342   43.9702  -20.9299 C   0  0  0  0  0  0  0  0  0  0  0  0
  -17.4872   45.2139  -21.3217 N   0  0  0  0  0  0  0  0  0  0  0  0
  -16.7619   46.3151  -21.0843 C   0  0  0  0  0  0  0  0  0  0  0  0
  -15.5686   46.1493  -20.3866 C   0  0  0  0  0  0  0  0  0  0  0  0
  -15.1697   44.9065  -19.9691 C   0  0  0  0  0  0  0  0  0  0  0  0
  -13.9207   44.6940  -19.2332 C   0  0  0  0  0  0  0  0  0  0  0  0
  -13.4334   45.5799  -18.3250 C   0  0  0  0  0  0  0  0  0  0  0  0
  -12.2331   45.2699  -17.6861 C   0  0  0  0  0  0  0  0  0  0  0  0
  -11.5186   44.1273  -17.9204 C   0  0  0  0  0  0  0  0  0  0  0  0
  -10.3346   43.8841  -17.2503 C   0  0  0  0  0  0  0  0  0  0  0  0
   -9.6416   42.7229  -17.5117 C   0  0  0  0  0  0  0  0  0  0  0  0
  -10.1630   41.8461  -18.4380 C   0  0  0  0  0  0  0  0  0  0  0  0
  -11.3371   42.0650  -19.1166 C   0  0  0  0  0  0  0  0  0  0  0  0
  -12.0277   43.2370  -18.8466 C   0  0  0  0  0  0  0  0  0  0  0  0
  -13.2091   43.5153  -19.4925 C   0  0  0  0  0  0  0  0  0  0  0  0
  -15.9797   43.8585  -20.2625 N   0  0  0  0  0  0  0  0  0  0  0  0
  -17.3575   41.5260  -21.2473 C   0  0  0  0  0  0  0  0  0  0  0  0
  -18.4562   40.5581  -20.7886 C   0  0  0  0  0  0  0  0  0  0  0  0
  1  2  1  0
  2  3  1  0
  3  4  1  0
  4  5  1  0
  5  6  1  0
  6  7  1  0
  7  8  2  0
  8  9  1  0
  9 10  2  0
 10 11  1  0
 11 12  1  0
 12 13  2  0
 13 14  1  0
 14 15  2  0
 15 16  1  0
 16 17  2  0
 17 18  1  0
 18 19  2  0
 19 20  1  0
 20 21  2  0
 11 22  2  0
  6 23  1  0
 23 24  1  0
 24  3  1  0
 22  7  1  0
 21 12  1  0
 20 15  1  0
M  END
$$$$
