
     RDKit          3D

 29 32  0  0  0  0  0  0  0  0999 V2000
  -12.8623   21.2755  -46.5175 C   0  0  0  0  0  0  0  0  0  0  0  0
  -11.6935   21.2257  -45.5630 C   0  0  0  0  0  0  0  0  0  0  0  0
  -11.9037   20.0702  -44.6118 C   0  0  2  0  0  0  0  0  0  0  0  0
  -13.0390   20.3379  -43.7160 N   0  0  0  0  0  0  0  0  0  0  0  0
  -13.9034   19.3427  -43.2755 C   0  0  0  0  0  0  0  0  0  0  0  0
  -13.6298   18.1530  -43.7083 O   0  0  0  0  0  0  0  0  0  0  0  0
  -15.0466   19.4136  -42.4118 C   0  0  0  0  0  0  0  0  0  0  0  0
  -16.0019   20.4228  -42.6360 C   0  0  0  0  0  0  0  0  0  0  0  0
  -15.7975   21.2936  -43.6987 O   0  0  0  0  0  0  0  0  0  0  0  0
  -17.1121   20.5816  -41.8601 C   0  0  0  0  0  0  0  0  0  0  0  0
  -18.0449   21.6497  -42.1642 C   0  0  0  0  0  0  0  0  0  0  0  0
  -19.3179   21.4031  -42.6194 C   0  0  0  0  0  0  0  0  0  0  0  0
  -20.1882   22.4350  -42.9023 C   0  0  0  0  0  0  0  0  0  0  0  0
  -19.8006   23.7615  -42.7343 C   0  0  0  0  0  0  0  0  0  0  0  0
  -18.5420   24.0232  -42.2838 C   0  0  0  0  0  0  0  0  0  0  0  0
  -17.6832   22.9732  -42.0054 C   0  0  0  0  0  0  0  0  0  0  0  0
  -17.2812   19.7240  -40.8397 N   0  0  0  0  0  0  0  0  0  0  0  0
  -16.4185   18.7278  -40.5467 C   0  0  0  0  0  0  0  0  0  0  0  0
  -16.6578   17.9086  -39.4589 C   0  0  0  0  0  0  0  0  0  0  0  0
  -15.7758   16.9055  -39.1214 C   0  0  0  0  0  0  0  0  0  0  0  0
  -14.6531   16.7383  -39.8893 C   0  0  0  0  0  0  0  0  0  0  0  0
  -14.4245   17.5699  -40.9827 C   0  0  0  0  0  0  0  0  0  0  0  0
  -15.2844   18.5799  -41.3524 C   0  0  0  0  0  0  0  0  0  0  0  0
  -10.6634   19.8393  -43.8594 C   0  0  0  0  0  0  0  0  0  0  0  0
   -9.7218   18.9068  -44.2165 C   0  0  0  0  0  0  0  0  0  0  0  0
   -8.5689   18.7216  -43.4810 C   0  0  0  0  0  0  0  0  0  0  0  0
   -8.3250   19.4766  -42.3517 C   0  0  0  0  0  0  0  0  0  0  0  0
   -9.2544   20.4219  -41.9686 C   0  0  0  0  0  0  0  0  0  0  0  0
  -10.3999   20.5918  -42.7168 C   0  0  0  0  0  0  0  0  0  0  0  0
  1  2  1  0
  3  2  1  6
  3  4  1  0
  4  5  1  0
  5  6  2  0
  5  7  1  0
  7  8  2  0
  8  9  1  0
  8 10  1  0
 10 11  1  0
 11 12  2  0
 12 13  1  0
 13 14  2  0
 14 15  1  0
 15 16  2  0
 10 17  2  0
 17 18  1  0
 18 19  2  0
 19 20  1  0
 20 21  2  0
 21 22  1  0
 22 23  2  0
  3 24  1  0
 24 25  2  0
 25 26  1  0
 26 27  2  0
 27 28  1  0
 28 29  2  0
 23  7  1  0
 29 24  1  0
 16 11  1  0
 23 18  1  0
M  END
$$$$
