
     RDKit          3D

 30 33  0  0  0  0  0  0  0  0999 V2000
  -16.3211   17.9650  -34.3318 C   0  0  0  0  0  0  0  0  0  0  0  0
  -16.8558   19.1709  -35.0603 C   0  0  0  0  0  0  0  0  0  0  0  0
  -18.0654   18.8014  -35.7438 N   0  0  0  0  0  0  0  0  0  0  0  0
  -18.8352   19.7046  -36.5268 C   0  0  0  0  0  0  0  0  0  0  0  0
  -18.4409   20.8960  -36.5994 O   0  0  0  0  0  0  0  0  0  0  0  0
  -20.0489   19.3012  -37.2380 C   0  0  0  0  0  0  0  0  0  0  0  0
  -20.5901   20.3625  -38.1560 C   0  0  2  0  0  0  0  0  0  0  0  0
  -21.0956   21.4993  -37.3675 N   0  0  0  0  0  0  0  0  0  0  0  0
  -21.7022   22.5654  -37.7804 C   0  0  0  0  0  0  0  0  0  0  0  0
  -22.1330   23.5797  -36.8395 C   0  0  0  0  0  0  0  0  0  0  0  0
  -23.0352   24.5088  -37.3734 C   0  0  0  0  0  0  0  0  0  0  0  0
  -23.4516   25.5802  -36.6438 C   0  0  0  0  0  0  0  0  0  0  0  0
  -22.9783   25.7569  -35.3548 C   0  0  0  0  0  0  0  0  0  0  0  0
  -23.4633   27.0987  -34.3583 Cl  0  0  0  0  0  0  0  0  0  0  0  0
  -22.0847   24.8371  -34.8287 C   0  0  0  0  0  0  0  0  0  0  0  0
  -21.6758   23.7650  -35.5787 C   0  0  0  0  0  0  0  0  0  0  0  0
  -21.9003   22.8641  -39.1945 C   0  0  0  0  0  0  0  0  0  0  0  0
  -21.7371   24.1919  -39.5314 C   0  0  0  0  0  0  0  0  0  0  0  0
  -21.8921   24.5725  -40.8459 C   0  0  0  0  0  0  0  0  0  0  0  0
  -21.7209   25.9169  -41.1220 O   0  0  0  0  0  0  0  0  0  0  0  0
  -20.5103   26.5959  -41.1418 C   0  0  0  0  0  0  0  0  0  0  0  0
  -22.2072   23.6239  -41.8308 C   0  0  0  0  0  0  0  0  0  0  0  0
  -22.3692   22.2897  -41.5127 C   0  0  0  0  0  0  0  0  0  0  0  0
  -22.2099   21.9636  -40.2031 C   0  0  0  0  0  0  0  0  0  0  0  0
  -22.3465   20.5445  -39.9751 N   0  0  0  0  0  0  0  0  0  0  0  0
  -23.1985   19.8028  -40.6443 C   0  0  0  0  0  0  0  0  0  0  0  0
  -24.1977   20.2276  -41.6370 C   0  0  0  0  0  0  0  0  0  0  0  0
  -22.9948   18.5389  -40.1547 N   0  0  0  0  0  0  0  0  0  0  0  0
  -22.0345   18.5731  -39.2122 N   0  0  0  0  0  0  0  0  0  0  0  0
  -21.6089   19.8190  -39.0759 C   0  0  0  0  0  0  0  0  0  0  0  0
  1  2  1  0
  2  3  1  0
  3  4  1  0
  4  5  2  0
  4  6  1  0
  7  6  1  1
  7  8  1  0
  8  9  2  0
  9 10  1  0
 10 11  2  0
 11 12  1  0
 12 13  2  0
 13 14  1  0
 13 15  1  0
 15 16  2  0
  9 17  1  0
 17 18  2  0
 18 19  1  0
 19 20  1  0
 20 21  1  0
 19 22  2  0
 22 23  1  0
 23 24  2  0
 24 25  1  0
 25 26  1  0
 26 27  1  0
 26 28  2  0
 28 29  1  0
 29 30  2  0
 30  7  1  0
 16 10  1  0
 24 17  1  0
 30 25  1  0
M  END
$$$$
