
     RDKit          3D

 29 33  0  0  0  0  0  0  0  0999 V2000
  -33.6968    6.1027  -21.9660 C   0  0  0  0  0  0  0  0  0  0  0  0
  -33.8031    7.0919  -20.8599 C   0  0  0  0  0  0  0  0  0  0  0  0
  -34.9162    7.1578  -20.3078 O   0  0  0  0  0  0  0  0  0  0  0  0
  -32.7853    7.8927  -20.4418 O   0  0  0  0  0  0  0  0  0  0  0  0
  -32.9111    8.9368  -19.4690 C   0  0  2  0  0  0  0  0  0  0  0  0
  -33.4062    8.4184  -18.1999 C   0  0  0  0  0  0  0  0  0  0  0  0
  -33.7340    7.0675  -17.7445 C   0  0  0  0  0  0  0  0  0  0  0  0
  -33.6028    9.2489  -17.2876 O   0  0  0  0  0  0  0  0  0  0  0  0
  -34.0692    9.8099  -19.9989 C   0  0  0  0  0  0  0  0  0  0  0  0
  -33.6688   11.2385  -19.7022 C   0  0  0  0  0  0  0  0  0  0  0  0
  -32.2766   11.1503  -20.1811 C   0  0  1  0  0  0  0  0  0  0  0  0
  -31.3262   12.2259  -19.8854 C   0  0  2  0  0  0  0  0  0  0  0  0
  -31.8520   13.5896  -20.0685 C   0  0  0  0  0  0  0  0  0  0  0  0
  -31.0086   14.5488  -20.3671 C   0  0  0  0  0  0  0  0  0  0  0  0
  -31.5387   16.2098  -20.6053 Cl  0  0  0  0  0  0  0  0  0  0  0  0
  -29.5895   14.2598  -20.5131 C   0  0  0  0  0  0  0  0  0  0  0  0
  -28.7386   15.2769  -20.4857 C   0  0  0  0  0  0  0  0  0  0  0  0
  -27.3322   14.9474  -20.6388 C   0  0  0  0  0  0  0  0  0  0  0  0
  -26.4598   15.5784  -20.0302 O   0  0  0  0  0  0  0  0  0  0  0  0
  -26.9640   13.8426  -21.5380 C   0  0  2  0  0  0  0  0  0  0  0  0
  -27.7724   13.7426  -22.8046 C   0  0  0  0  0  0  0  0  0  0  0  0
  -28.0145   12.7980  -21.7238 C   0  0  2  0  0  0  0  0  0  0  0  0
  -29.0425   12.8953  -20.6606 C   0  0  1  0  0  0  0  0  0  0  0  0
  -28.3496   12.5058  -19.3565 C   0  0  0  0  0  0  0  0  0  0  0  0
  -30.2271   11.9881  -20.9312 C   0  0  1  0  0  0  0  0  0  0  0  0
  -29.9072   10.5658  -21.1179 C   0  0  0  0  0  0  0  0  0  0  0  0
  -30.6422    9.4984  -20.4339 C   0  0  0  0  0  0  0  0  0  0  0  0
  -31.7776    9.8844  -19.5120 C   0  0  2  0  0  0  0  0  0  0  0  0
  -31.1990   10.0886  -18.1460 C   0  0  0  0  0  0  0  0  0  0  0  0
  1  2  1  0
  2  3  2  0
  2  4  1  0
  5  4  1  6
  5  6  1  0
  6  7  1  0
  6  8  2  0
  5  9  1  0
  9 10  1  0
 11 10  1  1
 11 12  1  0
 12 13  1  6
 13 14  2  0
 14 15  1  0
 14 16  1  0
 16 17  2  0
 17 18  1  0
 18 19  2  0
 18 20  1  0
 20 21  1  6
 22 21  1  6
 22 23  1  0
 23 24  1  1
 23 25  1  0
 25 26  1  1
 26 27  1  0
 27 28  1  0
 28 29  1  1
 28  5  1  0
 28 11  1  0
 25 12  1  0
 23 16  1  0
 22 20  1  0
M  END
$$$$
