
     RDKit          3D

 14 15  0  0  0  0  0  0  0  0999 V2000
  -22.7638   36.8390  -23.1222 N   0  0  0  0  0  0  0  0  0  0  0  0
  -23.4080   38.0001  -23.6721 C   0  0  0  0  0  0  0  0  0  0  0  0
  -22.7732   39.2209  -23.7438 C   0  0  0  0  0  0  0  0  0  0  0  0
  -23.4226   40.3375  -24.2851 C   0  0  0  0  0  0  0  0  0  0  0  0
  -22.7060   41.6067  -24.3333 C   0  0  0  0  0  0  0  0  0  0  0  0
  -21.3370   41.7164  -24.3501 C   0  0  0  0  0  0  0  0  0  0  0  0
  -20.6981   42.9567  -24.3994 C   0  0  0  0  0  0  0  0  0  0  0  0
  -21.4433   44.0832  -24.4312 N   0  0  0  0  0  0  0  0  0  0  0  0
  -22.7768   44.0010  -24.4157 C   0  0  0  0  0  0  0  0  0  0  0  0
  -23.4355   42.7835  -24.3670 C   0  0  0  0  0  0  0  0  0  0  0  0
  -24.6956   40.1569  -24.7305 C   0  0  0  0  0  0  0  0  0  0  0  0
  -25.3160   38.9652  -24.6606 N   0  0  0  0  0  0  0  0  0  0  0  0
  -24.7013   37.8712  -24.1387 C   0  0  0  0  0  0  0  0  0  0  0  0
  -25.3078   36.7478  -24.0817 O   0  0  0  0  0  0  0  0  0  0  0  0
  1  2  1  0
  2  3  2  0
  3  4  1  0
  4  5  1  0
  5  6  2  0
  6  7  1  0
  7  8  2  0
  8  9  1  0
  9 10  2  0
  4 11  2  0
 11 12  1  0
 12 13  1  0
 13 14  2  0
 13  2  1  0
 10  5  1  0
M  END
$$$$
