
     RDKit          3D

 38 41  0  0  0  0  0  0  0  0999 V2000
  -18.2718   28.9776  -19.9652 C   0  0  0  0  0  0  0  0  0  0  0  0
  -17.9036   30.0216  -20.9116 N   0  0  0  0  0  0  0  0  0  0  0  0
  -18.4181   31.3541  -20.7895 C   0  0  0  0  0  0  0  0  0  0  0  0
  -19.3480   31.5660  -19.9859 O   0  0  0  0  0  0  0  0  0  0  0  0
  -17.8959   32.4295  -21.5580 N   0  0  0  0  0  0  0  0  0  0  0  0
  -18.4276   33.7474  -21.5148 C   0  0  0  0  0  0  0  0  0  0  0  0
  -17.5935   34.8453  -21.5520 C   0  0  0  0  0  0  0  0  0  0  0  0
  -18.0439   36.1375  -21.5136 C   0  0  0  0  0  0  0  0  0  0  0  0
  -19.3997   36.3997  -21.4333 C   0  0  0  0  0  0  0  0  0  0  0  0
  -20.2517   35.3249  -21.3952 C   0  0  0  0  0  0  0  0  0  0  0  0
  -19.7761   34.0170  -21.4350 C   0  0  0  0  0  0  0  0  0  0  0  0
  -21.6847   35.8039  -21.3172 C   0  0  0  0  0  0  0  0  0  0  0  0
  -21.5463   37.2067  -21.9022 C   0  0  0  0  0  0  0  0  0  0  0  0
  -20.2216   37.6229  -21.3668 C   0  0  1  0  0  0  0  0  0  0  0  0
  -20.3416   38.1317  -20.0648 O   0  0  0  0  0  0  0  0  0  0  0  0
  -20.5857   39.4933  -20.1512 C   0  0  0  0  0  0  0  0  0  0  0  0
  -21.1143   40.2302  -19.2520 O   0  0  0  0  0  0  0  0  0  0  0  0
  -20.1320   39.9108  -21.4388 N   0  0  0  0  0  0  0  0  0  0  0  0
  -20.2002   41.2868  -21.9513 C   0  0  0  0  0  0  0  0  0  0  0  0
  -18.9205   41.9550  -21.7024 C   0  0  0  0  0  0  0  0  0  0  0  0
  -18.0407   41.3585  -21.0681 O   0  0  0  0  0  0  0  0  0  0  0  0
  -18.6243   43.3100  -22.1715 N   0  0  0  0  0  0  0  0  0  0  0  0
  -17.2638   43.6843  -22.2386 C   0  0  0  0  0  0  0  0  0  0  0  0
  -16.5385   43.9566  -20.9688 C   0  0  0  0  0  0  0  0  0  0  0  0
  -16.1179   45.2328  -20.6779 C   0  0  0  0  0  0  0  0  0  0  0  0
  -15.3978   45.4645  -19.5128 C   0  0  0  0  0  0  0  0  0  0  0  0
  -15.0714   44.4763  -18.6118 C   0  0  0  0  0  0  0  0  0  0  0  0
  -14.3663   44.7243  -17.4770 F   0  0  0  0  0  0  0  0  0  0  0  0
  -15.5129   43.2151  -18.9458 C   0  0  0  0  0  0  0  0  0  0  0  0
  -16.2234   42.9508  -20.0841 C   0  0  0  0  0  0  0  0  0  0  0  0
  -19.7688   44.0960  -22.4583 C   0  0  1  0  0  0  0  0  0  0  0  0
  -19.5492   45.5293  -21.9141 C   0  0  0  0  0  0  0  0  0  0  0  0
  -20.1984   44.2672  -23.8696 C   0  0  0  0  0  0  0  0  0  0  0  0
  -20.5428   42.9935  -24.4180 F   0  0  0  0  0  0  0  0  0  0  0  0
  -19.2957   44.8237  -24.7112 F   0  0  0  0  0  0  0  0  0  0  0  0
  -21.4355   44.9188  -23.9284 F   0  0  0  0  0  0  0  0  0  0  0  0
  -19.6194   38.7591  -22.0967 C   0  0  0  0  0  0  0  0  0  0  0  0
  -18.8347   38.8075  -23.0726 O   0  0  0  0  0  0  0  0  0  0  0  0
  1  2  1  0
  2  3  1  0
  3  4  2  0
  3  5  1  0
  5  6  1  0
  6  7  2  0
  7  8  1  0
  8  9  2  0
  9 10  1  0
 10 11  2  0
 10 12  1  0
 12 13  1  0
 14 13  1  6
 14 15  1  0
 15 16  1  0
 16 17  2  0
 16 18  1  0
 18 19  1  0
 19 20  1  0
 20 21  2  0
 20 22  1  0
 22 23  1  0
 23 24  1  0
 24 25  2  0
 25 26  1  0
 26 27  2  0
 27 28  1  0
 27 29  1  0
 29 30  2  0
 22 31  1  0
 31 32  1  6
 31 33  1  0
 33 34  1  0
 33 35  1  0
 33 36  1  0
 18 37  1  0
 37 38  2  0
 11  6  1  0
 37 14  1  0
 14  9  1  0
 30 24  1  0
M  END
$$$$
