
     RDKit          3D

 19 19  0  0  0  0  0  0  0  0999 V2000
  -21.4424   15.8479  -31.1171 C   0  0  0  0  0  0  0  0  0  0  0  0
  -20.1689   15.2118  -30.5826 C   0  0  0  0  0  0  0  0  0  0  0  0
  -20.0895   13.8372  -30.6833 O   0  0  0  0  0  0  0  0  0  0  0  0
  -19.2170   15.9146  -30.0650 C   0  0  0  0  0  0  0  0  0  0  0  0
  -19.4729   17.3696  -30.0561 C   0  0  0  0  0  0  0  0  0  0  0  0
  -19.6575   18.5155  -30.0606 N   0  0  0  0  0  0  0  0  0  0  0  0
  -17.9643   15.4237  -29.5110 C   0  0  0  0  0  0  0  0  0  0  0  0
  -16.9717   16.2440  -29.5486 O   0  0  0  0  0  0  0  0  0  0  0  0
  -17.7283   14.1676  -28.9483 N   0  0  0  0  0  0  0  0  0  0  0  0
  -16.4796   13.5488  -28.6800 C   0  0  0  0  0  0  0  0  0  0  0  0
  -15.3936   14.3376  -28.2840 C   0  0  0  0  0  0  0  0  0  0  0  0
  -14.1524   13.8076  -28.0069 C   0  0  0  0  0  0  0  0  0  0  0  0
  -13.9269   12.4711  -28.1085 C   0  0  0  0  0  0  0  0  0  0  0  0
  -12.5992   11.8710  -27.8162 C   0  0  0  0  0  0  0  0  0  0  0  0
  -12.6954   10.5016  -27.9630 F   0  0  0  0  0  0  0  0  0  0  0  0
  -12.2175   12.1582  -26.5400 F   0  0  0  0  0  0  0  0  0  0  0  0
  -11.6721   12.3494  -28.7310 F   0  0  0  0  0  0  0  0  0  0  0  0
  -14.9713   11.6705  -28.4945 C   0  0  0  0  0  0  0  0  0  0  0  0
  -16.2366   12.2176  -28.7761 C   0  0  0  0  0  0  0  0  0  0  0  0
  1  2  1  0
  2  3  1  0
  2  4  2  0
  4  5  1  0
  5  6  3  0
  4  7  1  0
  7  8  2  0
  7  9  1  0
  9 10  1  0
 10 11  2  0
 11 12  1  0
 12 13  2  0
 13 14  1  0
 14 15  1  0
 14 16  1  0
 14 17  1  0
 13 18  1  0
 18 19  2  0
 19 10  1  0
M  END
$$$$
