
     RDKit          3D

 30 33  0  0  0  0  0  0  0  0999 V2000
  -21.8466   43.8735  -27.3391 C   0  0  0  0  0  0  0  0  0  0  0  0
  -21.0098   44.1331  -26.1006 C   0  0  0  0  0  0  0  0  0  0  0  0
  -20.7945   42.8842  -25.4370 O   0  0  0  0  0  0  0  0  0  0  0  0
  -19.9316   42.9263  -24.3353 C   0  0  0  0  0  0  0  0  0  0  0  0
  -19.4981   44.0481  -24.0022 O   0  0  0  0  0  0  0  0  0  0  0  0
  -19.5508   41.6929  -23.6141 C   0  0  0  0  0  0  0  0  0  0  0  0
  -19.8507   40.3999  -23.9995 C   0  0  0  0  0  0  0  0  0  0  0  0
  -19.2329   39.5983  -23.1211 N   0  0  0  0  0  0  0  0  0  0  0  0
  -18.5790   40.3947  -22.2267 C   0  0  0  0  0  0  0  0  0  0  0  0
  -17.7711   40.1073  -21.1325 C   0  0  0  0  0  0  0  0  0  0  0  0
  -17.2008   41.1159  -20.3918 C   0  0  0  0  0  0  0  0  0  0  0  0
  -17.3972   42.4602  -20.6880 C   0  0  0  0  0  0  0  0  0  0  0  0
  -16.7279   43.5280  -19.9694 C   0  0  0  0  0  0  0  0  0  0  0  0
  -17.3843   44.6817  -19.5782 C   0  0  0  0  0  0  0  0  0  0  0  0
  -16.7544   45.7277  -18.9922 N   0  0  0  0  0  0  0  0  0  0  0  0
  -15.4537   45.7359  -18.7449 C   0  0  0  0  0  0  0  0  0  0  0  0
  -14.7330   44.6054  -19.1159 C   0  0  0  0  0  0  0  0  0  0  0  0
  -13.3350   44.6439  -18.9561 N   0  0  0  0  0  0  0  0  0  0  0  0
  -12.5884   44.7421  -17.4460 S   0  0  0  0  0  6  0  0  0  0  0  0
  -12.9477   46.0636  -16.7460 O   0  0  0  0  0  0  0  0  0  0  0  0
  -11.0923   44.8097  -17.6734 O   0  0  0  0  0  0  0  0  0  0  0  0
  -12.9864   43.4294  -16.3807 C   0  0  0  0  0  0  0  0  0  0  0  0
  -14.0356   43.6269  -15.4684 C   0  0  0  0  0  0  0  0  0  0  0  0
  -14.4469   42.6127  -14.6360 C   0  0  0  0  0  0  0  0  0  0  0  0
  -13.8182   41.3940  -14.7018 C   0  0  0  0  0  0  0  0  0  0  0  0
  -12.7785   41.1677  -15.5881 C   0  0  0  0  0  0  0  0  0  0  0  0
  -12.3700   42.2065  -16.4281 C   0  0  0  0  0  0  0  0  0  0  0  0
  -15.3658   43.5171  -19.7161 C   0  0  0  0  0  0  0  0  0  0  0  0
  -18.2098   42.6854  -21.7869 C   0  0  0  0  0  0  0  0  0  0  0  0
  -18.7697   41.6835  -22.5207 N   0  0  0  0  0  0  0  0  0  0  0  0
  1  2  1  0
  2  3  1  0
  3  4  1  0
  4  5  2  0
  4  6  1  0
  6  7  2  0
  7  8  1  0
  8  9  2  0
  9 10  1  0
 10 11  2  0
 11 12  1  0
 12 13  1  0
 13 14  2  0
 14 15  1  0
 15 16  2  0
 16 17  1  0
 17 18  1  0
 18 19  1  0
 19 20  2  0
 19 21  2  0
 19 22  1  0
 22 23  2  0
 23 24  1  0
 24 25  2  0
 25 26  1  0
 26 27  2  0
 17 28  2  0
 12 29  2  0
 29 30  1  0
 30  6  1  0
 30  9  1  0
 28 13  1  0
 27 22  1  0
M  END
$$$$
