
     RDKit          3D

 39 43  0  0  0  0  0  0  0  0999 V2000
  -18.8434   18.8977  -37.3252 C   0  0  0  0  0  0  0  0  0  0  0  0
  -18.6636   18.2588  -35.9997 C   0  0  0  0  0  0  0  0  0  0  0  0
  -19.6870   17.4973  -35.4691 C   0  0  0  0  0  0  0  0  0  0  0  0
  -19.5221   16.9083  -34.2332 C   0  0  0  0  0  0  0  0  0  0  0  0
  -18.3480   17.0586  -33.5000 C   0  0  0  0  0  0  0  0  0  0  0  0
  -18.2183   16.4540  -32.2236 N   0  0  0  0  0  0  0  0  0  0  0  0
  -17.0814   15.6519  -31.8882 C   0  0  0  0  0  0  0  0  0  0  0  0
  -16.2460   15.4209  -32.7631 O   0  0  0  0  0  0  0  0  0  0  0  0
  -16.9284   15.1368  -30.5759 N   0  0  0  0  0  0  0  0  0  0  0  0
  -16.0417   14.1256  -30.1724 C   0  0  0  0  0  0  0  0  0  0  0  0
  -14.7543   13.9659  -30.6172 C   0  0  0  0  0  0  0  0  0  0  0  0
  -13.9148   12.9392  -30.1788 C   0  0  0  0  0  0  0  0  0  0  0  0
  -12.5355   12.7964  -30.6883 C   0  0  0  0  0  0  0  0  0  0  0  0
  -12.3779   11.5664  -31.3021 F   0  0  0  0  0  0  0  0  0  0  0  0
  -11.6076   12.8790  -29.6750 F   0  0  0  0  0  0  0  0  0  0  0  0
  -12.3200   13.8047  -31.6024 F   0  0  0  0  0  0  0  0  0  0  0  0
  -14.4207   12.0595  -29.2592 C   0  0  0  0  0  0  0  0  0  0  0  0
  -15.7119   12.1672  -28.7713 C   0  0  0  0  0  0  0  0  0  0  0  0
  -16.4793   13.1916  -29.2400 C   0  0  0  0  0  0  0  0  0  0  0  0
  -17.7519   13.2900  -28.7541 F   0  0  0  0  0  0  0  0  0  0  0  0
  -17.3486   17.8227  -34.0567 C   0  0  0  0  0  0  0  0  0  0  0  0
  -17.4910   18.4324  -35.3102 C   0  0  0  0  0  0  0  0  0  0  0  0
  -16.4730   19.2251  -35.8530 N   0  0  0  0  0  0  0  0  0  0  0  0
  -15.7422   18.8057  -37.0070 C   0  0  0  0  0  0  0  0  0  0  0  0
  -14.3609   18.5876  -36.9211 C   0  0  0  0  0  0  0  0  0  0  0  0
  -13.6469   18.1701  -38.0212 C   0  0  0  0  0  0  0  0  0  0  0  0
  -14.2708   17.9566  -39.2309 C   0  0  0  0  0  0  0  0  0  0  0  0
  -15.6267   18.1605  -39.3538 C   0  0  0  0  0  0  0  0  0  0  0  0
  -16.3318   18.5833  -38.2288 C   0  0  0  0  0  0  0  0  0  0  0  0
  -16.0053   17.8614  -40.7044 N   0  0  0  0  0  0  0  0  0  0  0  0
  -14.8729   17.4605  -41.4532 C   0  0  0  0  0  0  0  0  0  0  0  0
  -14.8721   17.1346  -42.6644 O   0  0  0  0  0  0  0  0  0  0  0  0
  -13.7478   17.5097  -40.5408 C   0  0  0  0  0  0  0  0  0  0  0  0
  -12.5157   17.2364  -40.8608 C   0  0  0  0  0  0  0  0  0  0  0  0
  -12.0124   16.8689  -42.1738 C   0  0  0  0  0  0  0  0  0  0  0  0
  -12.9086   16.6087  -43.2243 C   0  0  0  0  0  0  0  0  0  0  0  0
  -12.1977   16.3196  -44.3643 C   0  0  0  0  0  0  0  0  0  0  0  0
  -10.8608   16.4053  -44.0018 C   0  0  0  0  0  0  0  0  0  0  0  0
  -10.8005   16.7378  -42.6795 N   0  0  0  0  0  0  0  0  0  0  0  0
  1  2  1  0
  2  3  2  0
  3  4  1  0
  4  5  2  0
  5  6  1  0
  6  7  1  0
  7  8  2  0
  7  9  1  0
  9 10  1  0
 10 11  2  0
 11 12  1  0
 12 13  1  0
 13 14  1  0
 13 15  1  0
 13 16  1  0
 12 17  2  0
 17 18  1  0
 18 19  2  0
 19 20  1  0
  5 21  1  0
 21 22  2  0
 22 23  1  0
 23 24  1  0
 24 25  2  0
 25 26  1  0
 26 27  2  0
 27 28  1  0
 28 29  2  0
 28 30  1  0
 30 31  1  0
 31 32  2  0
 31 33  1  0
 33 34  2  0
 34 35  1  0
 35 36  2  0
 36 37  1  0
 37 38  2  0
 38 39  1  0
 22  2  1  0
 29 24  1  0
 39 35  1  0
 19 10  1  0
 33 27  1  0
M  END
$$$$
