
     RDKit          3D

  9  9  0  0  0  0  0  0  0  0999 V2000
  -19.2074   37.9318  -20.1543 O   0  0  0  0  0  0  0  0  0  0  0  0
  -18.9723   38.5699  -21.2111 C   0  0  0  0  0  0  0  0  0  0  0  0
  -19.0513   37.9354  -22.4218 O   0  0  0  0  0  0  0  0  0  0  0  0
  -18.6228   39.9718  -21.0931 C   0  0  0  0  0  0  0  0  0  0  0  0
  -18.4148   40.6021  -19.8939 C   0  0  0  0  0  0  0  0  0  0  0  0
  -18.0832   41.9354  -19.7990 C   0  0  0  0  0  0  0  0  0  0  0  0
  -17.9511   42.6816  -20.9505 C   0  0  0  0  0  0  0  0  0  0  0  0
  -18.1514   42.0790  -22.1278 N   0  0  0  0  0  0  0  0  0  0  0  0
  -18.4751   40.7776  -22.2216 C   0  0  0  0  0  0  0  0  0  0  0  0
  1  2  2  0
  2  3  1  0
  2  4  1  0
  4  5  2  0
  5  6  1  0
  6  7  2  0
  7  8  1  0
  8  9  2  0
  9  4  1  0
M  END
$$$$
