
     RDKit          3D

 25 28  0  0  0  0  0  0  0  0999 V2000
  -18.8479   44.1446  -24.2222 C   0  0  0  0  0  0  0  0  0  0  0  0
  -19.3211   43.7814  -22.8305 C   0  0  2  0  0  0  0  0  0  0  0  0
  -20.8456   43.7021  -22.9068 C   0  0  0  0  0  0  0  0  0  0  0  0
  -21.2174   45.1191  -22.4769 C   0  0  0  0  0  0  0  0  0  0  0  0
  -20.2134   45.3405  -21.3595 C   0  0  0  0  0  0  0  0  0  0  0  0
  -18.9997   44.8348  -21.9158 N   0  0  0  0  0  0  0  0  0  0  0  0
  -18.0083   44.4895  -20.9392 C   0  0  0  0  0  0  0  0  0  0  0  0
  -17.3045   43.2082  -21.2050 C   0  0  0  0  0  0  0  0  0  0  0  0
  -16.0079   43.1924  -20.4399 C   0  0  0  0  0  0  0  0  0  0  0  0
  -15.8596   42.9501  -19.0902 C   0  0  0  0  0  0  0  0  0  0  0  0
  -14.5204   43.0216  -18.7609 C   0  0  0  0  0  0  0  0  0  0  0  0
  -13.7759   42.8767  -17.6088 C   0  0  0  0  0  0  0  0  0  0  0  0
  -12.4032   43.0068  -17.5694 C   0  0  0  0  0  0  0  0  0  0  0  0
  -11.6302   42.8540  -16.3629 C   0  0  0  0  0  0  0  0  0  0  0  0
  -11.9019   43.6944  -15.2981 C   0  0  0  0  0  0  0  0  0  0  0  0
  -11.1939   43.5992  -14.1109 C   0  0  0  0  0  0  0  0  0  0  0  0
  -10.1939   42.6667  -13.9438 C   0  0  0  0  0  0  0  0  0  0  0  0
   -9.4495   42.5568  -12.7151 C   0  0  0  0  0  0  0  0  0  0  0  0
   -8.8567   42.4623  -11.7297 N   0  0  0  0  0  0  0  0  0  0  0  0
   -9.9248   41.8274  -15.0116 C   0  0  0  0  0  0  0  0  0  0  0  0
  -10.6362   41.9224  -16.2058 C   0  0  0  0  0  0  0  0  0  0  0  0
  -11.7875   43.3012  -18.7905 C   0  0  0  0  0  0  0  0  0  0  0  0
  -12.5096   43.4502  -19.9517 C   0  0  0  0  0  0  0  0  0  0  0  0
  -13.8902   43.3125  -19.9554 C   0  0  0  0  0  0  0  0  0  0  0  0
  -14.8065   43.4018  -20.9061 O   0  0  0  0  0  0  0  0  0  0  0  0
  2  1  1  6
  2  3  1  0
  3  4  1  0
  4  5  1  0
  5  6  1  0
  6  7  1  0
  7  8  1  0
  8  9  1  0
  9 10  2  0
 10 11  1  0
 11 12  2  0
 12 13  1  0
 13 14  1  0
 14 15  2  0
 15 16  1  0
 16 17  2  0
 17 18  1  0
 18 19  3  0
 17 20  1  0
 20 21  2  0
 13 22  2  0
 22 23  1  0
 23 24  2  0
 24 25  1  0
  6  2  1  0
 25  9  1  0
 24 11  1  0
 21 14  1  0
M  END
$$$$
