
     RDKit          3D

 44 47  0  0  0  0  0  0  0  0999 V2000
  -24.4240   15.2258  -19.4574 C   0  0  0  0  0  0  0  0  0  0  0  0
  -25.2256   15.6281  -20.5465 O   0  0  0  0  0  0  0  0  0  0  0  0
  -24.6700   15.9003  -21.7713 C   0  0  0  0  0  0  0  0  0  0  0  0
  -23.2868   15.8721  -21.9109 C   0  0  0  0  0  0  0  0  0  0  0  0
  -22.7517   16.1495  -23.1525 C   0  0  0  0  0  0  0  0  0  0  0  0
  -21.3969   16.1230  -23.2945 F   0  0  0  0  0  0  0  0  0  0  0  0
  -23.5554   16.4492  -24.2393 C   0  0  0  0  0  0  0  0  0  0  0  0
  -22.9288   16.7398  -25.5510 C   0  0  0  0  0  0  0  0  0  0  0  0
  -23.8325   17.6417  -26.3630 C   0  0  0  0  0  0  0  0  0  0  0  0
  -22.6895   15.4862  -26.3622 C   0  0  0  0  0  0  0  0  0  0  0  0
  -24.9365   16.4665  -24.0550 C   0  0  0  0  0  0  0  0  0  0  0  0
  -25.4954   16.1940  -22.8291 C   0  0  0  0  0  0  0  0  0  0  0  0
  -26.9523   16.2210  -22.6555 C   0  0  0  0  0  0  0  0  0  0  0  0
  -27.5180   17.4341  -22.2324 C   0  0  0  0  0  0  0  0  0  0  0  0
  -28.8618   17.5528  -22.0712 C   0  0  0  0  0  0  0  0  0  0  0  0
  -29.7305   16.4980  -22.3122 C   0  0  0  0  0  0  0  0  0  0  0  0
  -31.1912   16.6931  -22.1175 C   0  0  0  0  0  0  0  0  0  0  0  0
  -31.4782   18.0168  -21.8887 F   0  0  0  0  0  0  0  0  0  0  0  0
  -31.5620   15.9568  -20.9988 F   0  0  0  0  0  0  0  0  0  0  0  0
  -31.9218   16.1998  -23.1988 F   0  0  0  0  0  0  0  0  0  0  0  0
  -29.1837   15.3122  -22.7246 C   0  0  0  0  0  0  0  0  0  0  0  0
  -27.7913   15.1717  -22.8966 C   0  0  0  0  0  0  0  0  0  0  0  0
  -27.3318   13.8620  -23.3080 C   0  0  0  0  0  0  0  0  0  0  0  0
  -27.9509   12.6974  -22.7791 N   0  0  0  0  0  0  0  0  0  0  0  0
  -28.8098   11.8193  -23.4895 C   0  0  0  0  0  0  0  0  0  0  0  0
  -28.8328   11.5688  -24.7433 O   0  0  0  0  0  0  0  0  0  0  0  0
  -29.6595   11.2508  -22.5465 O   0  0  0  0  0  0  0  0  0  0  0  0
  -28.7970   10.9820  -21.4339 C   0  0  2  0  0  0  0  0  0  0  0  0
  -29.5836   10.7815  -20.2253 C   0  0  0  0  0  0  0  0  0  0  0  0
  -29.0134   10.2898  -19.0782 C   0  0  0  0  0  0  0  0  0  0  0  0
  -29.7689   10.1053  -17.9443 C   0  0  0  0  0  0  0  0  0  0  0  0
  -29.1386    9.5735  -16.7118 C   0  0  0  0  0  0  0  0  0  0  0  0
  -28.0883    8.7356  -17.0655 F   0  0  0  0  0  0  0  0  0  0  0  0
  -30.0757    8.7952  -16.0486 F   0  0  0  0  0  0  0  0  0  0  0  0
  -28.6754   10.6042  -15.9220 F   0  0  0  0  0  0  0  0  0  0  0  0
  -31.1085   10.4041  -17.9201 C   0  0  0  0  0  0  0  0  0  0  0  0
  -31.6953   10.8980  -19.0622 C   0  0  0  0  0  0  0  0  0  0  0  0
  -33.1500   11.2325  -19.0665 C   0  0  0  0  0  0  0  0  0  0  0  0
  -33.6471   10.8892  -17.8158 F   0  0  0  0  0  0  0  0  0  0  0  0
  -33.8301   10.5893  -20.0686 F   0  0  0  0  0  0  0  0  0  0  0  0
  -33.3263   12.5784  -19.2251 F   0  0  0  0  0  0  0  0  0  0  0  0
  -30.9268   11.0832  -20.2081 C   0  0  0  0  0  0  0  0  0  0  0  0
  -27.8704   12.1411  -21.4301 C   0  0  2  0  0  0  0  0  0  0  0  0
  -28.2053   13.1859  -20.4062 C   0  0  0  0  0  0  0  0  0  0  0  0
  1  2  1  0
  2  3  1  0
  3  4  2  0
  4  5  1  0
  5  6  1  0
  5  7  2  0
  7  8  1  0
  8  9  1  0
  8 10  1  0
  7 11  1  0
 11 12  2  0
 12 13  1  0
 13 14  2  0
 14 15  1  0
 15 16  2  0
 16 17  1  0
 17 18  1  0
 17 19  1  0
 17 20  1  0
 16 21  1  0
 21 22  2  0
 22 23  1  0
 23 24  1  0
 24 25  1  0
 25 26  2  0
 25 27  1  0
 27 28  1  0
 28 29  1  1
 29 30  2  0
 30 31  1  0
 31 32  1  0
 32 33  1  0
 32 34  1  0
 32 35  1  0
 31 36  2  0
 36 37  1  0
 37 38  1  0
 38 39  1  0
 38 40  1  0
 38 41  1  0
 37 42  2  0
 28 43  1  0
 43 44  1  1
 12  3  1  0
 22 13  1  0
 43 24  1  0
 42 29  1  0
M  END
$$$$
