
     RDKit          3D

 16 16  0  0  0  0  0  0  0  0999 V2000
  -18.0146   14.5632  -34.3144 C   0  0  0  0  0  0  0  0  0  0  0  0
  -17.0821   15.6908  -34.0882 C   0  0  0  0  0  0  0  0  0  0  0  0
  -16.3386   15.7613  -32.9035 C   0  0  0  0  0  0  0  0  0  0  0  0
  -15.4601   16.7834  -32.6310 C   0  0  0  0  0  0  0  0  0  0  0  0
  -15.2933   17.7899  -33.5538 C   0  0  0  0  0  0  0  0  0  0  0  0
  -16.0036   17.7572  -34.7262 C   0  0  0  0  0  0  0  0  0  0  0  0
  -15.8225   18.8578  -35.7263 C   0  0  0  0  0  0  0  0  0  0  0  0
  -16.8994   16.7055  -34.9955 C   0  0  0  0  0  0  0  0  0  0  0  0
  -17.5663   16.7175  -36.2496 N   0  0  0  0  0  0  0  0  0  0  0  0
  -18.9041   17.0751  -36.4497 C   0  0  0  0  0  0  0  0  0  0  0  0
  -19.7940   16.5866  -35.6578 N   0  0  0  0  0  0  0  0  0  0  0  0
  -21.1730   16.9589  -35.8707 C   0  0  0  0  0  0  0  0  0  0  0  0
  -21.4624   18.4130  -35.8609 C   0  0  0  0  0  0  0  0  0  0  0  0
  -20.7720   19.1888  -36.9600 C   0  0  0  0  0  0  0  0  0  0  0  0
  -19.4599   18.1808  -37.7390 S   0  0  0  0  0  0  0  0  0  0  0  0
  -18.8165   17.3973  -35.3836 Cl  0  0  0  0  0  0  0  0  0  0  0  0
  1  2  1  0
  2  3  2  0
  3  4  1  0
  4  5  2  0
  5  6  1  0
  6  7  1  0
  6  8  2  0
  8  9  1  0
  9 10  1  0
 10 11  2  0
 11 12  1  0
 12 13  1  0
 13 14  1  0
 14 15  1  0
  8  2  1  0
 15 10  1  0
M  END
$$$$
