
     RDKit          3D

 34 35  0  0  0  0  0  0  0  0999 V2000
  -26.6920   21.9796  -35.5419 C   0  0  0  0  0  0  0  0  0  0  0  0
  -25.3778   22.4187  -35.3118 O   0  0  0  0  0  0  0  0  0  0  0  0
  -24.7450   22.0604  -34.1284 C   0  0  0  0  0  0  0  0  0  0  0  0
  -25.3609   21.2873  -33.1691 C   0  0  0  0  0  0  0  0  0  0  0  0
  -24.7269   20.9366  -31.9986 C   0  0  0  0  0  0  0  0  0  0  0  0
  -23.4220   21.3868  -31.7955 C   0  0  0  0  0  0  0  0  0  0  0  0
  -22.6651   21.0741  -30.5803 C   0  0  0  0  0  0  0  0  0  0  0  0
  -21.8393   19.8032  -30.6672 C   0  0  0  0  0  0  0  0  0  0  0  0
  -22.6121   18.6525  -30.9405 N   0  0  0  0  0  0  0  0  0  0  0  0
  -23.4948   18.1880  -29.9471 C   0  0  0  0  0  0  0  0  0  0  0  0
  -22.0530   17.7610  -31.8569 C   0  0  0  0  0  0  0  0  0  0  0  0
  -20.8651   16.9643  -31.5044 C   0  0  0  0  0  0  0  0  0  0  0  0
  -19.6171   17.6800  -31.1383 C   0  0  0  0  0  0  0  0  0  0  0  0
  -18.5326   16.7272  -30.8326 N   0  0  0  0  0  0  0  0  0  0  0  0
  -18.4039   16.2534  -29.4788 C   0  0  0  0  0  0  0  0  0  0  0  0
  -16.9483   16.2197  -29.0959 C   0  0  0  0  0  0  0  0  0  0  0  0
  -16.1919   15.1583  -29.7598 C   0  0  0  0  0  0  0  0  0  0  0  0
  -15.3992   14.4949  -28.8492 C   0  0  0  0  0  0  0  0  0  0  0  0
  -14.5736   13.4463  -29.1802 C   0  0  0  0  0  0  0  0  0  0  0  0
  -13.7787   12.7824  -28.2591 O   0  0  0  0  0  0  0  0  0  0  0  0
  -13.8498   13.2374  -26.9091 C   0  0  0  0  0  0  0  0  0  0  0  0
  -14.5406   13.0401  -30.5001 C   0  0  0  0  0  0  0  0  0  0  0  0
  -13.7052   11.9826  -30.8223 O   0  0  0  0  0  0  0  0  0  0  0  0
  -13.6344   11.5275  -32.1540 C   0  0  0  0  0  0  0  0  0  0  0  0
  -15.3204   13.6748  -31.4589 C   0  0  0  0  0  0  0  0  0  0  0  0
  -16.1357   14.7259  -31.0740 C   0  0  0  0  0  0  0  0  0  0  0  0
  -16.8576   15.2297  -32.2387 C   0  0  0  0  0  0  0  0  0  0  0  0
  -17.7452   16.3922  -31.9527 C   0  0  0  0  0  0  0  0  0  0  0  0
  -17.8333   17.2753  -32.8787 O   0  0  0  0  0  0  0  0  0  0  0  0
  -22.8120   22.1647  -32.7697 C   0  0  0  0  0  0  0  0  0  0  0  0
  -23.4373   22.5195  -33.9403 C   0  0  0  0  0  0  0  0  0  0  0  0
  -22.8241   23.3035  -34.9231 O   0  0  0  0  0  0  0  0  0  0  0  0
  -21.5049   23.7559  -34.7125 C   0  0  0  0  0  0  0  0  0  0  0  0
  -20.2873   18.2052  -31.6253 Cl  0  0  0  0  0  0  0  0  0  0  0  0
  1  2  1  0
  2  3  1  0
  3  4  2  0
  4  5  1  0
  5  6  2  0
  6  7  1  0
  7  8  1  0
  8  9  1  0
  9 10  1  0
  9 11  1  0
 11 12  1  0
 12 13  1  0
 13 14  1  0
 14 15  1  0
 15 16  1  0
 16 17  1  0
 17 18  2  0
 18 19  1  0
 19 20  1  0
 20 21  1  0
 19 22  2  0
 22 23  1  0
 23 24  1  0
 22 25  1  0
 25 26  2  0
 26 27  1  0
 27 28  1  0
 28 29  2  0
  6 30  1  0
 30 31  2  0
 31 32  1  0
 32 33  1  0
 31  3  1  0
 28 14  1  0
 26 17  1  0
M  END
$$$$
