
     RDKit          3D

 24 25  0  0  0  0  0  0  0  0999 V2000
  -18.6050   20.9313  -43.3187 C   0  0  0  0  0  0  0  0  0  0  0  0
  -17.6003   20.3434  -42.3289 C   0  0  0  0  0  0  0  0  0  0  0  0
  -16.6773   19.4369  -43.1124 C   0  0  0  0  0  0  0  0  0  0  0  0
  -16.8667   21.5169  -41.7259 C   0  0  0  0  0  0  0  0  0  0  0  0
  -18.3416   19.6499  -41.2608 C   0  0  0  0  0  0  0  0  0  0  0  0
  -19.4665   19.1679  -41.5326 O   0  0  0  0  0  0  0  0  0  0  0  0
  -17.8391   19.4927  -39.9010 C   0  0  0  0  0  0  0  0  0  0  0  0
  -18.6467   19.6077  -38.9233 N   0  0  0  0  0  0  0  0  0  0  0  0
  -18.7997   18.6558  -37.9218 C   0  0  0  0  0  0  0  0  0  0  0  0
  -18.5324   18.9682  -36.6139 C   0  0  0  0  0  0  0  0  0  0  0  0
  -18.6946   18.0800  -35.5791 C   0  0  0  0  0  0  0  0  0  0  0  0
  -19.1453   16.8091  -35.8361 C   0  0  0  0  0  0  0  0  0  0  0  0
  -19.3651   15.6390  -34.5217 Cl  0  0  0  0  0  0  0  0  0  0  0  0
  -19.4238   16.4610  -37.1391 C   0  0  0  0  0  0  0  0  0  0  0  0
  -19.2502   17.3854  -38.1780 C   0  0  0  0  0  0  0  0  0  0  0  0
  -16.4713   19.2265  -39.6017 N   0  0  0  0  0  0  0  0  0  0  0  0
  -15.7548   18.2060  -40.2041 N   0  0  0  0  0  0  0  0  0  0  0  0
  -14.5066   17.7973  -39.6849 C   0  0  0  0  0  0  0  0  0  0  0  0
  -13.3202   17.9718  -40.3914 C   0  0  0  0  0  0  0  0  0  0  0  0
  -12.1093   17.5673  -39.8633 C   0  0  0  0  0  0  0  0  0  0  0  0
  -12.0515   16.9788  -38.6179 C   0  0  0  0  0  0  0  0  0  0  0  0
  -10.5081   16.4548  -37.9272 Cl  0  0  0  0  0  0  0  0  0  0  0  0
  -13.2255   16.8053  -37.9172 C   0  0  0  0  0  0  0  0  0  0  0  0
  -14.4376   17.2103  -38.4456 C   0  0  0  0  0  0  0  0  0  0  0  0
  1  2  1  0
  2  3  1  0
  2  4  1  0
  2  5  1  0
  5  6  2  0
  5  7  1  0
  7  8  2  0
  8  9  1  0
  9 10  2  0
 10 11  1  0
 11 12  2  0
 12 13  1  0
 12 14  1  0
 14 15  2  0
  7 16  1  0
 16 17  1  0
 17 18  1  0
 18 19  2  0
 19 20  1  0
 20 21  2  0
 21 22  1  0
 21 23  1  0
 23 24  2  0
 15  9  1  0
 24 18  1  0
M  END
$$$$
