
     RDKit          3D

 40 41  0  0  0  0  0  0  0  0999 V2000
  -20.1740   40.3199  -26.2892 C   0  0  0  0  0  0  0  0  0  0  0  0
  -20.2376   40.8739  -24.8693 C   0  0  2  0  0  0  0  0  0  0  0  0
  -18.9319   41.3052  -24.4517 N   0  0  0  0  0  0  0  0  0  0  0  0
  -18.7543   42.2122  -23.3769 C   0  0  0  0  0  0  0  0  0  0  0  0
  -19.7252   42.7201  -22.7764 O   0  0  0  0  0  0  0  0  0  0  0  0
  -17.3982   42.5970  -22.9195 C   0  0  0  0  0  0  0  0  0  0  0  0
  -16.4538   41.8235  -23.1816 O   0  0  0  0  0  0  0  0  0  0  0  0
  -17.1813   43.7993  -22.2102 N   0  0  0  0  0  0  0  0  0  0  0  0
  -16.0370   44.2051  -21.5365 C   0  0  0  0  0  0  0  0  0  0  0  0
  -14.8986   43.4423  -21.5121 C   0  0  0  0  0  0  0  0  0  0  0  0
  -13.7312   43.8199  -20.8428 C   0  0  0  0  0  0  0  0  0  0  0  0
  -13.7393   45.0184  -20.1801 C   0  0  0  0  0  0  0  0  0  0  0  0
  -14.9005   45.7934  -20.2070 C   0  0  0  0  0  0  0  0  0  0  0  0
  -16.0508   45.4259  -20.8644 C   0  0  0  0  0  0  0  0  0  0  0  0
  -17.2086   46.3440  -20.8350 C   0  0  0  0  0  0  0  0  0  0  0  0
  -17.9074   46.3718  -22.2003 C   0  0  0  0  0  0  0  0  0  0  0  0
  -18.2003   46.0329  -19.7511 C   0  0  0  0  0  0  0  0  0  0  0  0
  -16.7004   47.7563  -20.5639 C   0  0  0  0  0  0  0  0  0  0  0  0
  -20.7301   39.8005  -23.9358 C   0  0  0  0  0  0  0  0  0  0  0  0
  -21.9672   39.6414  -23.8032 O   0  0  0  0  0  0  0  0  0  0  0  0
  -19.8226   38.9934  -23.2276 N   0  0  0  0  0  0  0  0  0  0  0  0
  -20.1491   38.2721  -21.9848 C   0  0  1  0  0  0  0  0  0  0  0  0
  -19.8481   36.8318  -22.1101 C   0  0  0  0  0  0  0  0  0  0  0  0
  -18.4777   36.4618  -22.4409 C   0  0  0  0  0  0  0  0  0  0  0  0
  -17.6442   36.3496  -21.4727 O   0  0  0  0  0  0  0  0  0  0  0  0
  -17.9560   36.2119  -23.6912 O   0  0  0  0  0  0  0  0  0  0  0  0
  -19.7425   39.0126  -20.8068 C   0  0  0  0  0  0  0  0  0  0  0  0
  -18.6542   39.6789  -21.0169 O   0  0  0  0  0  0  0  0  0  0  0  0
  -20.2304   39.2134  -19.4610 C   0  0  0  0  0  0  0  0  0  0  0  0
  -20.0196   40.1448  -18.5820 O   0  0  0  0  0  0  0  0  0  0  0  0
  -19.3204   41.1262  -18.0444 C   0  0  0  0  0  0  0  0  0  0  0  0
  -19.9318   42.3675  -17.7517 C   0  0  0  0  0  0  0  0  0  0  0  0
  -21.2461   42.4638  -18.0491 F   0  0  0  0  0  0  0  0  0  0  0  0
  -19.2745   43.4175  -17.2073 C   0  0  0  0  0  0  0  0  0  0  0  0
  -19.8657   44.6060  -16.9285 F   0  0  0  0  0  0  0  0  0  0  0  0
  -17.9365   43.3074  -16.9089 C   0  0  0  0  0  0  0  0  0  0  0  0
  -17.3148   42.1247  -17.1797 C   0  0  0  0  0  0  0  0  0  0  0  0
  -16.0028   41.9777  -16.9013 F   0  0  0  0  0  0  0  0  0  0  0  0
  -17.9856   41.0381  -17.7422 C   0  0  0  0  0  0  0  0  0  0  0  0
  -17.2826   39.9132  -18.0571 F   0  0  0  0  0  0  0  0  0  0  0  0
  2  1  1  6
  2  3  1  0
  3  4  1  0
  4  5  2  0
  4  6  1  0
  6  7  2  0
  6  8  1  0
  8  9  1  0
  9 10  2  0
 10 11  1  0
 11 12  2  0
 12 13  1  0
 13 14  2  0
 14 15  1  0
 15 16  1  0
 15 17  1  0
 15 18  1  0
  2 19  1  0
 19 20  2  0
 19 21  1  0
 21 22  1  0
 22 23  1  6
 23 24  1  0
 24 25  2  0
 24 26  1  0
 22 27  1  0
 27 28  2  0
 27 29  1  0
 29 30  1  0
 30 31  1  0
 31 32  2  0
 32 33  1  0
 32 34  1  0
 34 35  1  0
 34 36  2  0
 36 37  1  0
 37 38  1  0
 37 39  2  0
 39 40  1  0
 14  9  1  0
 39 31  1  0
M  END
$$$$
