
     RDKit          3D

 23 27  0  0  0  0  0  0  0  0999 V2000
  -15.5324   18.2806  -29.8279 C   0  0  0  0  0  0  0  0  0  0  0  0
  -16.8728   18.4448  -30.1632 C   0  0  0  0  0  0  0  0  0  0  0  0
  -17.3250   18.3393  -31.4552 C   0  0  0  0  0  0  0  0  0  0  0  0
  -16.4004   18.0609  -32.4336 C   0  0  0  0  0  0  0  0  0  0  0  0
  -16.8141   17.9335  -33.8418 C   0  0  0  0  0  0  0  0  0  0  0  0
  -15.9882   17.9387  -34.9545 C   0  0  0  0  0  0  0  0  0  0  0  0
  -16.7631   17.7994  -36.0287 N   0  0  0  0  0  0  0  0  0  0  0  0
  -18.0451   17.7065  -35.6382 C   0  0  0  0  0  0  0  0  0  0  0  0
  -18.0580   17.7910  -34.2893 N   0  0  0  0  0  0  0  0  0  0  0  0
  -19.2087   17.5436  -36.5217 C   0  0  0  0  0  0  0  0  0  0  0  0
  -18.8806   17.4826  -37.9575 C   0  0  0  0  0  0  0  0  0  0  0  0
  -17.4652   17.5901  -38.3102 C   0  0  0  0  0  0  0  0  0  0  0  0
  -17.1775   17.5295  -39.6801 C   0  0  0  0  0  0  0  0  0  0  0  0
  -15.8990   17.6171  -40.1473 C   0  0  0  0  0  0  0  0  0  0  0  0
  -14.8886   17.7698  -39.2024 C   0  0  0  0  0  0  0  0  0  0  0  0
  -13.5964   17.8585  -39.6739 C   0  0  0  0  0  0  0  0  0  0  0  0
  -12.5436   18.0111  -38.7919 C   0  0  0  0  0  0  0  0  0  0  0  0
  -12.8526   18.0682  -37.4455 C   0  0  0  0  0  0  0  0  0  0  0  0
  -14.1220   17.9784  -37.0262 N   0  0  0  0  0  0  0  0  0  0  0  0
  -15.1559   17.8322  -37.8341 C   0  0  0  0  0  0  0  0  0  0  0  0
  -16.4459   17.7417  -37.3950 C   0  0  0  0  0  0  0  0  0  0  0  0
  -15.0738   17.8970  -32.1121 C   0  0  0  0  0  0  0  0  0  0  0  0
  -14.6203   18.0030  -30.8153 C   0  0  0  0  0  0  0  0  0  0  0  0
  1  2  2  0
  2  3  1  0
  3  4  2  0
  4  5  1  0
  5  6  2  0
  6  7  1  0
  7  8  1  0
  8  9  2  0
  8 10  1  0
 10 11  1  0
 11 12  1  0
 12 13  2  0
 13 14  1  0
 14 15  2  0
 15 16  1  0
 16 17  2  0
 17 18  1  0
 18 19  2  0
 19 20  1  0
 20 21  2  0
  4 22  1  0
 22 23  2  0
 23  1  1  0
  9  5  1  0
 21 12  1  0
 21  7  1  0
 20 15  1  0
M  END
$$$$
