
     RDKit          3D

 17 18  0  0  0  0  0  0  0  0999 V2000
  -21.8458   17.3565  -31.9593 C   0  0  0  0  0  0  0  0  0  0  0  0
  -20.8693   18.4034  -31.4939 C   0  0  0  0  0  0  0  0  0  0  0  0
  -20.5176   19.2371  -32.7110 C   0  0  0  0  0  0  0  0  0  0  0  0
  -21.4823   19.2385  -30.4328 C   0  0  0  0  0  0  0  0  0  0  0  0
  -22.1485   18.6416  -29.3871 C   0  0  0  0  0  0  0  0  0  0  0  0
  -22.7400   19.3869  -28.3681 C   0  0  0  0  0  0  0  0  0  0  0  0
  -22.6560   20.7470  -28.4089 C   0  0  0  0  0  0  0  0  0  0  0  0
  -23.2313   21.5550  -27.4114 O   0  0  0  0  0  0  0  0  0  0  0  0
  -21.9927   21.3580  -29.4491 C   0  0  0  0  0  0  0  0  0  0  0  0
  -21.4035   20.6026  -30.4649 C   0  0  0  0  0  0  0  0  0  0  0  0
  -19.6479   17.7978  -30.9035 C   0  0  0  0  0  0  0  0  0  0  0  0
  -18.5103   18.5511  -30.7325 C   0  0  0  0  0  0  0  0  0  0  0  0
  -17.3483   18.0102  -30.1812 C   0  0  0  0  0  0  0  0  0  0  0  0
  -17.3406   16.6863  -29.7981 C   0  0  0  0  0  0  0  0  0  0  0  0
  -16.2142   16.0784  -29.2398 O   0  0  0  0  0  0  0  0  0  0  0  0
  -18.4820   15.9273  -29.9687 C   0  0  0  0  0  0  0  0  0  0  0  0
  -19.6214   16.4860  -30.5173 C   0  0  0  0  0  0  0  0  0  0  0  0
  1  2  1  0
  2  3  1  0
  2  4  1  0
  4  5  2  0
  5  6  1  0
  6  7  2  0
  7  8  1  0
  7  9  1  0
  9 10  2  0
  2 11  1  0
 11 12  2  0
 12 13  1  0
 13 14  2  0
 14 15  1  0
 14 16  1  0
 16 17  2  0
 10  4  1  0
 17 11  1  0
M  END
$$$$
