
     RDKit          3D

 19 21  0  0  0  0  0  0  0  0999 V2000
  -16.4622   13.9258  -26.1218 O   0  0  0  0  0  0  0  0  0  0  0  0
  -15.9401   13.9688  -27.2741 C   0  0  0  0  0  0  0  0  0  0  0  0
  -16.5785   14.6304  -28.2362 N   0  0  0  0  0  0  0  0  0  0  0  0
  -16.0870   14.7251  -29.5158 C   0  0  0  0  0  0  0  0  0  0  0  0
  -16.8399   15.3922  -30.4687 N   0  0  0  0  0  0  0  0  0  0  0  0
  -18.2095   15.6263  -30.5942 C   0  0  0  0  0  0  0  0  0  0  0  0
  -18.7028   16.8464  -30.9759 C   0  0  0  0  0  0  0  0  0  0  0  0
  -20.0818   16.9779  -31.0813 C   0  0  0  0  0  0  0  0  0  0  0  0
  -20.9431   15.9215  -30.8131 C   0  0  0  0  0  0  0  0  0  0  0  0
  -22.2852   16.0644  -30.9274 F   0  0  0  0  0  0  0  0  0  0  0  0
  -20.4420   14.6892  -30.4263 C   0  0  0  0  0  0  0  0  0  0  0  0
  -19.0809   14.5598  -30.3223 C   0  0  0  0  0  0  0  0  0  0  0  0
  -14.8955   14.1046  -29.7588 C   0  0  0  0  0  0  0  0  0  0  0  0
  -14.2078   13.4043  -28.7621 C   0  0  0  0  0  0  0  0  0  0  0  0
  -13.0066   12.7734  -29.0226 C   0  0  0  0  0  0  0  0  0  0  0  0
  -12.3711   12.0881  -28.0088 C   0  0  0  0  0  0  0  0  0  0  0  0
  -12.9028   12.0111  -26.7317 C   0  0  0  0  0  0  0  0  0  0  0  0
  -14.0962   12.6369  -26.4631 C   0  0  0  0  0  0  0  0  0  0  0  0
  -14.7290   13.3273  -27.4941 C   0  0  0  0  0  0  0  0  0  0  0  0
  1  2  2  0
  2  3  1  0
  3  4  1  0
  4  5  1  0
  5  6  1  0
  6  7  2  0
  7  8  1  0
  8  9  2  0
  9 10  1  0
  9 11  1  0
 11 12  2  0
  4 13  2  0
 13 14  1  0
 14 15  2  0
 15 16  1  0
 16 17  2  0
 17 18  1  0
 18 19  2  0
 19  2  1  0
 12  6  1  0
 19 14  1  0
M  END
$$$$
