
     RDKit          3D

 30 33  0  0  0  0  0  0  0  0999 V2000
  -27.0040   26.0325  -34.2315 C   0  0  0  0  0  0  0  0  0  0  0  0
  -26.2658   25.2710  -33.2917 O   0  0  0  0  0  0  0  0  0  0  0  0
  -25.4035   24.2646  -33.6404 C   0  0  0  0  0  0  0  0  0  0  0  0
  -24.1199   24.2925  -33.1496 C   0  0  0  0  0  0  0  0  0  0  0  0
  -23.2713   23.2739  -33.5121 C   0  0  0  0  0  0  0  0  0  0  0  0
  -23.6818   22.2381  -34.3487 C   0  0  0  0  0  0  0  0  0  0  0  0
  -22.8278   21.2094  -34.7066 C   0  0  0  0  0  0  0  0  0  0  0  0
  -23.2134   20.1674  -35.5282 C   0  0  0  0  0  0  0  0  0  0  0  0
  -22.2736   19.1894  -35.8182 O   0  0  0  0  0  0  0  0  0  0  0  0
  -21.5823   19.0508  -37.0163 C   0  0  0  0  0  0  0  0  0  0  0  0
  -20.1647   18.7024  -36.7265 C   0  0  0  0  0  0  0  0  0  0  0  0
  -19.4552   18.1043  -37.8620 C   0  0  0  0  0  0  0  0  0  0  0  0
  -18.5417   18.7300  -38.4460 O   0  0  0  0  0  0  0  0  0  0  0  0
  -19.7802   16.8389  -38.3086 O   0  0  0  0  0  0  0  0  0  0  0  0
  -19.8609   18.0998  -35.3612 C   0  0  0  0  0  0  0  0  0  0  0  0
  -18.5687   18.7956  -35.4825 N   0  0  0  0  0  0  0  0  0  0  0  0
  -17.2340   18.5459  -35.1615 C   0  0  0  0  0  0  0  0  0  0  0  0
  -16.3207   19.1554  -35.7388 O   0  0  0  0  0  0  0  0  0  0  0  0
  -16.8916   17.5577  -34.1322 C   0  0  0  0  0  0  0  0  0  0  0  0
  -16.5744   17.9550  -32.8527 C   0  0  0  0  0  0  0  0  0  0  0  0
  -16.2510   17.0388  -31.8766 C   0  0  0  0  0  0  0  0  0  0  0  0
  -16.2574   15.7057  -32.2321 C   0  0  0  0  0  0  0  0  0  0  0  0
  -15.9459   14.7375  -31.3219 F   0  0  0  0  0  0  0  0  0  0  0  0
  -16.5731   15.2976  -33.5076 C   0  0  0  0  0  0  0  0  0  0  0  0
  -16.8955   16.2203  -34.4770 C   0  0  0  0  0  0  0  0  0  0  0  0
  -19.3649   19.8732  -36.1025 C   0  0  0  0  0  0  0  0  0  0  0  0
  -24.5031   20.1777  -35.9962 C   0  0  0  0  0  0  0  0  0  0  0  0
  -25.3577   21.2019  -35.6417 C   0  0  0  0  0  0  0  0  0  0  0  0
  -24.9802   22.2493  -34.8184 C   0  0  0  0  0  0  0  0  0  0  0  0
  -25.8561   23.2582  -34.4728 C   0  0  0  0  0  0  0  0  0  0  0  0
  1  2  1  0
  2  3  1  0
  3  4  2  0
  4  5  1  0
  5  6  2  0
  6  7  1  0
  7  8  2  0
  8  9  1  0
  9 10  1  0
 10 11  1  0
 11 12  1  0
 12 13  2  0
 12 14  1  0
 11 15  1  0
 15 16  1  0
 16 17  1  0
 17 18  2  0
 17 19  1  0
 19 20  2  0
 20 21  1  0
 21 22  2  0
 22 23  1  0
 22 24  1  0
 24 25  2  0
 16 26  1  0
  8 27  1  0
 27 28  2  0
 28 29  1  0
 29 30  2  0
 30  3  1  0
 29  6  1  0
 26 11  1  0
 25 19  1  0
M  END
$$$$
