
     RDKit          3D

 42 45  0  0  0  0  0  0  0  0999 V2000
  -18.2835   24.0982  -39.0578 C   0  0  0  0  0  0  0  0  0  0  0  0
  -18.6402   23.3007  -40.1454 O   0  0  0  0  0  0  0  0  0  0  0  0
  -17.9372   23.2478  -41.3496 C   0  0  0  0  0  0  0  0  0  0  0  0
  -16.5627   23.1609  -41.3934 C   0  0  0  0  0  0  0  0  0  0  0  0
  -15.8864   23.1101  -42.6004 C   0  0  0  0  0  0  0  0  0  0  0  0
  -16.5560   23.1444  -43.8142 C   0  0  0  0  0  0  0  0  0  0  0  0
  -15.8106   23.0765  -45.0658 C   0  0  0  0  0  0  0  0  0  0  0  0
  -16.3904   22.5328  -46.2068 C   0  0  0  0  0  0  0  0  0  0  0  0
  -15.6924   22.4550  -47.3927 C   0  0  0  0  0  0  0  0  0  0  0  0
  -14.3866   22.9127  -47.5031 C   0  0  0  0  0  0  0  0  0  0  0  0
  -13.7909   23.4554  -46.3854 C   0  0  0  0  0  0  0  0  0  0  0  0
  -12.4178   23.9434  -46.4487 C   0  0  0  0  0  0  0  0  0  0  0  0
  -12.2392   25.1840  -46.3438 O   0  0  0  0  0  0  0  0  0  0  0  0
  -11.3303   23.0843  -46.6188 N   0  0  0  0  0  0  0  0  0  0  0  0
   -9.9907   23.6210  -46.7508 C   0  0  0  0  0  0  0  0  0  0  0  0
  -11.4864   21.6459  -46.6704 C   0  0  0  0  0  0  0  0  0  0  0  0
  -14.5175   23.5238  -45.1949 C   0  0  0  0  0  0  0  0  0  0  0  0
  -17.9299   23.2320  -43.7512 C   0  0  0  0  0  0  0  0  0  0  0  0
  -18.6221   23.2831  -42.5410 C   0  0  0  0  0  0  0  0  0  0  0  0
  -20.3526   23.3642  -42.5000 S   0  0  0  0  0  6  0  0  0  0  0  0
  -20.7706   24.5286  -41.6144 O   0  0  0  0  0  0  0  0  0  0  0  0
  -20.8959   23.7244  -43.8760 O   0  0  0  0  0  0  0  0  0  0  0  0
  -21.0651   21.9617  -41.8859 N   0  0  0  0  0  0  0  0  0  0  0  0
  -20.4031   20.7196  -41.7293 C   0  0  0  0  0  0  0  0  0  0  0  0
  -20.4449   19.7607  -42.7128 C   0  0  0  0  0  0  0  0  0  0  0  0
  -19.7783   18.5676  -42.5357 C   0  0  0  0  0  0  0  0  0  0  0  0
  -19.0678   18.3195  -41.3847 C   0  0  0  0  0  0  0  0  0  0  0  0
  -19.0135   19.2696  -40.3847 C   0  0  0  0  0  0  0  0  0  0  0  0
  -18.2635   19.0288  -39.1746 N   0  0  0  0  0  0  0  0  0  0  0  0
  -16.9712   18.4412  -39.2157 C   0  0  0  0  0  0  0  0  0  0  0  0
  -16.2312   18.2586  -37.9413 C   0  0  0  0  0  0  0  0  0  0  0  0
  -15.6712   16.9633  -37.7730 N   0  0  0  0  0  0  0  0  0  0  0  0
  -15.0083   16.3374  -36.7326 C   0  0  0  0  0  0  0  0  0  0  0  0
  -13.9539   15.7114  -36.9922 O   0  0  0  0  0  0  0  0  0  0  0  0
  -15.4421   16.3462  -35.3294 C   0  0  0  0  0  0  0  0  0  0  0  0
  -14.8876   17.2589  -34.4655 C   0  0  0  0  0  0  0  0  0  0  0  0
  -15.2603   17.3113  -33.1243 C   0  0  0  0  0  0  0  0  0  0  0  0
  -16.2092   16.4126  -32.6878 C   0  0  0  0  0  0  0  0  0  0  0  0
  -16.7513   15.5143  -33.5488 C   0  0  0  0  0  0  0  0  0  0  0  0
  -17.7827   14.5495  -33.0333 C   0  0  0  0  0  0  0  0  0  0  0  0
  -16.3822   15.4532  -34.9039 C   0  0  0  0  0  0  0  0  0  0  0  0
  -19.6751   20.4464  -40.5662 C   0  0  0  0  0  0  0  0  0  0  0  0
  1  2  1  0
  2  3  1  0
  3  4  2  0
  4  5  1  0
  5  6  2  0
  6  7  1  0
  7  8  2  0
  8  9  1  0
  9 10  2  0
 10 11  1  0
 11 12  1  0
 12 13  2  0
 12 14  1  0
 14 15  1  0
 14 16  1  0
 11 17  2  0
  6 18  1  0
 18 19  2  0
 19 20  1  0
 20 21  2  0
 20 22  2  0
 20 23  1  0
 23 24  1  0
 24 25  2  0
 25 26  1  0
 26 27  2  0
 27 28  1  0
 28 29  1  0
 29 30  1  0
 30 31  1  0
 31 32  1  0
 32 33  1  0
 33 34  2  0
 33 35  1  0
 35 36  2  0
 36 37  1  0
 37 38  2  0
 38 39  1  0
 39 40  1  0
 39 41  2  0
 28 42  2  0
 19  3  1  0
 42 24  1  0
 17  7  1  0
 41 35  1  0
M  END
$$$$
