
     RDKit          3D

 22 24  0  0  0  0  0  0  0  0999 V2000
  -21.4391   41.6517  -19.0700 C   0  0  0  0  0  0  0  0  0  0  0  0
  -20.3725   40.9635  -19.8543 C   0  0  0  0  0  0  0  0  0  0  0  0
  -19.0042   41.2245  -19.5143 N   0  0  0  0  0  0  0  0  0  0  0  0
  -18.1786   40.6441  -18.6530 C   0  0  0  0  0  0  0  0  0  0  0  0
  -16.9824   41.2089  -18.5509 N   0  0  0  0  0  0  0  0  0  0  0  0
  -17.0051   42.2484  -19.3922 C   0  0  0  0  0  0  0  0  0  0  0  0
  -15.9126   43.1345  -19.6489 C   0  0  0  0  0  0  0  0  0  0  0  0
  -14.7621   42.8912  -18.8863 N   0  0  0  0  0  0  0  0  0  0  0  0
  -13.4991   43.2375  -18.9749 C   0  0  0  0  0  0  0  0  0  0  0  0
  -12.2294   42.7358  -18.7079 C   0  0  0  0  0  0  0  0  0  0  0  0
  -11.0762   43.1036  -18.6435 C   0  0  0  0  0  0  0  0  0  0  0  0
   -9.9282   42.4154  -18.3596 F   0  0  0  0  0  0  0  0  0  0  0  0
  -10.8543   44.5539  -18.9159 C   0  0  0  0  0  0  0  0  0  0  0  0
  -12.0154   45.2415  -19.1918 C   0  0  0  0  0  0  0  0  0  0  0  0
  -11.8617   46.6098  -19.4454 F   0  0  0  0  0  0  0  0  0  0  0  0
  -13.2518   44.7582  -19.2396 C   0  0  0  0  0  0  0  0  0  0  0  0
  -16.2887   44.0403  -20.5623 N   0  0  0  0  0  0  0  0  0  0  0  0
  -17.4007   44.1350  -21.1236 C   0  0  0  0  0  0  0  0  0  0  0  0
  -17.8162   45.3420  -21.9548 C   0  0  0  0  0  0  0  0  0  0  0  0
  -18.1406   46.2432  -22.5964 N   0  0  0  0  0  0  0  0  0  0  0  0
  -18.5115   43.2785  -20.9080 N   0  0  0  0  0  0  0  0  0  0  0  0
  -18.2155   42.3119  -19.9845 C   0  0  0  0  0  0  0  0  0  0  0  0
  1  2  1  0
  2  3  1  0
  3  4  1  0
  4  5  2  0
  5  6  1  0
  6  7  2  0
  7  8  1  0
  8  9  1  0
  9 10  2  0
 10 11  1  0
 11 12  1  0
 11 13  2  0
 13 14  1  0
 14 15  1  0
 14 16  2  0
  7 17  1  0
 17 18  2  0
 18 19  1  0
 19 20  3  0
 18 21  1  0
 21 22  2  0
 22  3  1  0
 22  6  1  0
 16  9  1  0
M  END
$$$$
