
     RDKit          3D

 27 29  0  0  0  0  0  0  0  0999 V2000
  -25.6061   30.5607  -29.5059 C   0  0  0  0  0  0  0  0  0  0  0  0
  -24.1123   30.5683  -29.3820 C   0  0  0  0  0  0  0  0  0  0  0  0
  -23.5563   29.5068  -30.3267 C   0  0  0  0  0  0  0  0  0  0  0  0
  -23.7160   30.3198  -28.0600 O   0  0  0  0  0  0  0  0  0  0  0  0
  -22.3750   30.4314  -27.6685 C   0  0  0  0  0  0  0  0  0  0  0  0
  -21.8406   31.5424  -27.0282 C   0  0  0  0  0  0  0  0  0  0  0  0
  -20.5037   31.2522  -26.8121 C   0  0  0  0  0  0  0  0  0  0  0  0
  -19.5641   32.0648  -26.1790 N   0  0  0  0  0  0  0  0  0  0  0  0
  -19.7462   33.4221  -25.8259 C   0  0  0  0  0  0  0  0  0  0  0  0
  -20.9698   34.0055  -26.0278 N   0  0  0  0  0  0  0  0  0  0  0  0
  -21.2634   35.2633  -25.6982 C   0  0  0  0  0  0  0  0  0  0  0  0
  -22.5341   35.8529  -25.9421 N   0  0  0  0  0  0  0  0  0  0  0  0
  -23.5703   35.0194  -26.4848 C   0  0  1  0  0  0  0  0  0  0  0  0
  -24.8886   35.4720  -25.8371 C   0  0  0  0  0  0  0  0  0  0  0  0
  -23.6753   35.1209  -27.9565 C   0  0  0  0  0  0  0  0  0  0  0  0
  -23.0560   36.1193  -28.6841 C   0  0  0  0  0  0  0  0  0  0  0  0
  -23.2189   36.1028  -30.0738 C   0  0  0  0  0  0  0  0  0  0  0  0
  -23.9648   35.1316  -30.6892 C   0  0  0  0  0  0  0  0  0  0  0  0
  -24.1244   35.1166  -32.0494 F   0  0  0  0  0  0  0  0  0  0  0  0
  -24.5675   34.1511  -29.9320 C   0  0  0  0  0  0  0  0  0  0  0  0
  -24.3953   34.1926  -28.6070 N   0  0  0  0  0  0  0  0  0  0  0  0
  -20.2828   35.9935  -25.1308 N   0  0  0  0  0  0  0  0  0  0  0  0
  -19.0578   35.4968  -24.9007 C   0  0  0  0  0  0  0  0  0  0  0  0
  -18.7536   34.1704  -25.2514 C   0  0  0  0  0  0  0  0  0  0  0  0
  -17.1455   33.5592  -24.9733 Cl  0  0  0  0  0  0  0  0  0  0  0  0
  -20.2910   30.0273  -27.3117 N   0  0  0  0  0  0  0  0  0  0  0  0
  -21.4093   29.5271  -27.8288 N   0  0  0  0  0  0  0  0  0  0  0  0
  1  2  1  0
  2  3  1  0
  2  4  1  0
  4  5  1  0
  5  6  2  0
  6  7  1  0
  7  8  1  0
  8  9  1  0
  9 10  2  0
 10 11  1  0
 11 12  1  0
 12 13  1  0
 13 14  1  1
 13 15  1  0
 15 16  2  0
 16 17  1  0
 17 18  2  0
 18 19  1  0
 18 20  1  0
 20 21  2  0
 11 22  2  0
 22 23  1  0
 23 24  2  0
 24 25  1  0
  7 26  2  0
 26 27  1  0
 27  5  1  0
 24  9  1  0
 21 15  1  0
M  END
$$$$
