
     RDKit          3D

 27 29  0  0  0  0  0  0  0  0999 V2000
  -29.9332   10.6097  -23.1323 C   0  0  0  0  0  0  0  0  0  0  0  0
  -30.7806   10.7762  -22.0213 O   0  0  0  0  0  0  0  0  0  0  0  0
  -32.1218   10.4952  -21.9974 C   0  0  0  0  0  0  0  0  0  0  0  0
  -32.6445   10.0483  -23.0624 O   0  0  0  0  0  0  0  0  0  0  0  0
  -32.9711   10.6758  -20.8402 C   0  0  0  0  0  0  0  0  0  0  0  0
  -34.3141   10.3791  -20.8648 C   0  0  0  0  0  0  0  0  0  0  0  0
  -35.0963   10.5596  -19.7539 C   0  0  0  0  0  0  0  0  0  0  0  0
  -34.5551   11.0474  -18.5713 C   0  0  0  0  0  0  0  0  0  0  0  0
  -33.2217   11.3428  -18.5441 C   0  0  0  0  0  0  0  0  0  0  0  0
  -32.4312   11.1557  -19.6815 C   0  0  0  0  0  0  0  0  0  0  0  0
  -31.0235   11.5045  -19.5355 C   0  0  0  0  0  0  0  0  0  0  0  0
  -30.6331   12.7923  -19.8248 C   0  0  0  0  0  0  0  0  0  0  0  0
  -31.4927   13.7719  -20.2440 C   0  0  0  0  0  0  0  0  0  0  0  0
  -31.0065   15.0361  -20.5103 C   0  0  0  0  0  0  0  0  0  0  0  0
  -29.6738   15.3617  -20.3709 C   0  0  0  0  0  0  0  0  0  0  0  0
  -29.2700   16.5792  -20.6384 N   0  0  0  0  0  0  0  0  0  0  0  0
  -28.7844   14.3976  -19.9508 C   0  0  0  0  0  0  0  0  0  0  0  0
  -29.2145   13.0965  -19.6646 C   0  0  0  0  0  0  0  0  0  0  0  0
  -28.3913   12.1755  -19.2678 O   0  0  0  0  0  0  0  0  0  0  0  0
  -28.7272   10.9320  -18.9814 C   0  0  0  0  0  0  0  0  0  0  0  0
  -27.7796   10.0195  -18.5655 C   0  0  0  0  0  0  0  0  0  0  0  0
  -28.1388    8.7222  -18.2682 C   0  0  0  0  0  0  0  0  0  0  0  0
  -27.1853    7.7522  -17.8354 N   0  0  0  0  0  0  0  0  0  0  0  0
  -29.4824    8.3891  -18.4075 C   0  0  0  0  0  0  0  0  0  0  0  0
  -30.4250    9.3043  -18.8232 C   0  0  0  0  0  0  0  0  0  0  0  0
  -30.0614   10.6065  -19.1211 C   0  0  0  0  0  0  0  0  0  0  0  0
  -30.9863   11.5295  -20.5608 Cl  0  0  0  0  0  0  0  0  0  0  0  0
  1  2  1  0
  2  3  1  0
  3  4  2  0
  3  5  1  0
  5  6  2  0
  6  7  1  0
  7  8  2  0
  8  9  1  0
  9 10  2  0
 10 11  1  0
 11 12  2  0
 12 13  1  0
 13 14  2  0
 14 15  1  0
 15 16  2  0
 15 17  1  0
 17 18  2  0
 18 19  1  0
 19 20  1  0
 20 21  2  0
 21 22  1  0
 22 23  1  0
 22 24  2  0
 24 25  1  0
 25 26  2  0
 10  5  1  0
 26 11  1  0
 18 12  1  0
 26 20  1  0
M  END
$$$$
