
     RDKit          3D

 34 37  0  0  0  0  0  0  0  0999 V2000
  -21.3306   33.6206  -26.6611 C   0  0  0  0  0  0  0  0  0  0  0  0
  -21.0397   33.4485  -25.2114 C   0  0  0  0  0  0  0  0  0  0  0  0
  -19.6525   33.8815  -24.8089 C   0  0  0  0  0  0  0  0  0  0  0  0
  -19.3922   33.7491  -23.3485 C   0  0  0  0  0  0  0  0  0  0  0  0
  -18.2085   34.5077  -23.0058 N   0  0  0  0  0  0  0  0  0  0  0  0
  -18.3000   35.8737  -22.6066 C   0  0  0  0  0  0  0  0  0  0  0  0
  -17.3378   36.4817  -21.9381 N   0  0  0  0  0  0  0  0  0  0  0  0
  -17.4301   37.7810  -21.5677 C   0  0  0  0  0  0  0  0  0  0  0  0
  -18.5605   38.5334  -21.8836 C   0  0  0  0  0  0  0  0  0  0  0  0
  -18.6212   39.9362  -21.4941 C   0  0  0  0  0  0  0  0  0  0  0  0
  -19.1974   40.3192  -20.4664 O   0  0  0  0  0  0  0  0  0  0  0  0
  -18.0220   40.9894  -22.2625 N   0  0  0  0  0  0  0  0  0  0  0  0
  -18.4575   42.3688  -22.2302 C   0  0  0  0  0  0  0  0  0  0  0  0
  -17.6511   43.0956  -21.2327 C   0  0  0  0  0  0  0  0  0  0  0  0
  -18.2862   43.8948  -20.2967 C   0  0  0  0  0  0  0  0  0  0  0  0
  -17.5523   44.5976  -19.3584 C   0  0  0  0  0  0  0  0  0  0  0  0
  -16.1714   44.5225  -19.3287 C   0  0  0  0  0  0  0  0  0  0  0  0
  -15.4350   45.2494  -18.3572 N   0  0  0  0  0  0  0  0  0  0  0  0
  -15.9467   46.0526  -17.3992 C   0  0  0  0  0  0  0  0  0  0  0  0
  -14.9071   46.5821  -16.6484 C   0  0  0  0  0  0  0  0  0  0  0  0
  -13.7714   46.0829  -17.1734 N   0  0  0  0  0  0  0  0  0  0  0  0
  -14.1008   45.2795  -18.2045 C   0  0  0  0  0  0  0  0  0  0  0  0
  -15.5612   43.7215  -20.2701 C   0  0  0  0  0  0  0  0  0  0  0  0
  -16.2913   43.0057  -21.2245 C   0  0  0  0  0  0  0  0  0  0  0  0
  -19.5564   37.8959  -22.5774 C   0  0  0  0  0  0  0  0  0  0  0  0
  -20.7421   38.5500  -22.9437 N   0  0  0  0  0  0  0  0  0  0  0  0
  -22.0175   37.9057  -22.6080 C   0  0  1  0  0  0  0  0  0  0  0  0
  -23.1691   38.8638  -22.6384 C   0  0  0  0  0  0  0  0  0  0  0  0
  -24.0370   38.6849  -23.8657 C   0  0  0  0  0  0  0  0  0  0  0  0
  -23.1977   38.4212  -25.0989 C   0  0  2  0  0  0  0  0  0  0  0  0
  -24.0422   38.2679  -26.1738 O   0  0  0  0  0  0  0  0  0  0  0  0
  -22.3520   37.1817  -24.9247 C   0  0  0  0  0  0  0  0  0  0  0  0
  -22.2807   36.7228  -23.5037 C   0  0  0  0  0  0  0  0  0  0  0  0
  -19.3878   36.5662  -22.9203 N   0  0  0  0  0  0  0  0  0  0  0  0
  1  2  1  0
  2  3  1  0
  3  4  1  0
  4  5  1  0
  5  6  1  0
  6  7  2  0
  7  8  1  0
  8  9  2  0
  9 10  1  0
 10 11  2  0
 10 12  1  0
 12 13  1  0
 13 14  1  0
 14 15  2  0
 15 16  1  0
 16 17  2  0
 17 18  1  0
 18 19  1  0
 19 20  2  0
 20 21  1  0
 21 22  2  0
 17 23  1  0
 23 24  2  0
  9 25  1  0
 25 26  1  0
 27 26  1  6
 27 28  1  0
 28 29  1  0
 29 30  1  0
 30 31  1  6
 30 32  1  0
 32 33  1  0
 25 34  2  0
 34  6  1  0
 24 14  1  0
 33 27  1  0
 22 18  1  0
M  END
$$$$
