
     RDKit          3D

 20 21  0  0  0  0  0  0  0  0999 V2000
  -24.0598   20.7205  -31.1071 C   0  0  0  0  0  0  0  0  0  0  0  0
  -22.9678   20.8943  -30.2182 O   0  0  0  0  0  0  0  0  0  0  0  0
  -21.9439   19.9590  -30.1629 C   0  0  0  0  0  0  0  0  0  0  0  0
  -20.6602   20.2677  -29.7959 C   0  0  0  0  0  0  0  0  0  0  0  0
  -19.7012   19.2838  -29.7657 C   0  0  0  0  0  0  0  0  0  0  0  0
  -19.9732   17.9532  -30.0977 C   0  0  0  0  0  0  0  0  0  0  0  0
  -18.8774   17.0109  -30.0266 C   0  0  0  0  0  0  0  0  0  0  0  0
  -18.5079   16.2413  -31.0311 C   0  0  0  0  0  0  0  0  0  0  0  0
  -17.3189   15.4230  -31.0313 C   0  0  0  0  0  0  0  0  0  0  0  0
  -16.3881   15.4114  -32.0197 C   0  0  0  0  0  0  0  0  0  0  0  0
  -15.2507   14.6079  -31.9874 C   0  0  0  0  0  0  0  0  0  0  0  0
  -14.3074   14.6120  -33.0139 O   0  0  0  0  0  0  0  0  0  0  0  0
  -14.6236   14.8035  -34.3571 C   0  0  0  0  0  0  0  0  0  0  0  0
  -15.0991   13.8007  -30.8831 C   0  0  0  0  0  0  0  0  0  0  0  0
  -16.0066   13.7686  -29.8511 C   0  0  0  0  0  0  0  0  0  0  0  0
  -15.8560   12.9545  -28.7349 O   0  0  0  0  0  0  0  0  0  0  0  0
  -15.0703   11.7872  -28.8581 C   0  0  0  0  0  0  0  0  0  0  0  0
  -17.1108   14.5838  -29.9378 C   0  0  0  0  0  0  0  0  0  0  0  0
  -21.2395   17.6549  -30.4584 C   0  0  0  0  0  0  0  0  0  0  0  0
  -22.2212   18.6558  -30.4905 C   0  0  0  0  0  0  0  0  0  0  0  0
  1  2  1  0
  2  3  1  0
  3  4  2  0
  4  5  1  0
  5  6  2  0
  6  7  1  0
  7  8  2  0
  8  9  1  0
  9 10  2  0
 10 11  1  0
 11 12  1  0
 12 13  1  0
 11 14  2  0
 14 15  1  0
 15 16  1  0
 16 17  1  0
 15 18  2  0
  6 19  1  0
 19 20  2  0
 20  3  1  0
 18  9  1  0
M  END
$$$$
