
     RDKit          3D

 23 26  0  0  0  0  0  0  0  0999 V2000
  -32.4010   26.4872  -35.0897 C   0  0  0  0  0  0  0  0  0  0  0  0
  -31.8326   25.7922  -35.9130 C   0  0  0  0  0  0  0  0  0  0  0  0
  -31.1574   24.9328  -36.8960 C   0  0  2  0  0  0  0  0  0  0  0  0
  -31.8619   24.8930  -38.0977 O   0  0  0  0  0  0  0  0  0  0  0  0
  -31.1060   23.4996  -36.3593 C   0  0  0  0  0  0  0  0  0  0  0  0
  -29.6493   23.2169  -36.0490 C   0  0  0  0  0  0  0  0  0  0  0  0
  -29.1102   24.5879  -35.8392 C   0  0  1  0  0  0  0  0  0  0  0  0
  -27.6313   24.7078  -35.8080 C   0  0  2  0  0  0  0  0  0  0  0  0
  -27.1775   24.2487  -34.4142 C   0  0  0  0  0  0  0  0  0  0  0  0
  -25.6987   24.3668  -34.2539 C   0  0  0  0  0  0  0  0  0  0  0  0
  -25.2167   25.7101  -34.7095 C   0  0  0  0  0  0  0  0  0  0  0  0
  -24.3538   26.3515  -33.9680 C   0  0  0  0  0  0  0  0  0  0  0  0
  -23.8676   27.6558  -34.3836 C   0  0  0  0  0  0  0  0  0  0  0  0
  -23.4931   28.5259  -33.5761 O   0  0  0  0  0  0  0  0  0  0  0  0
  -23.8458   27.8904  -35.8728 C   0  0  0  0  0  0  0  0  0  0  0  0
  -25.2568   27.6035  -36.3311 C   0  0  0  0  0  0  0  0  0  0  0  0
  -25.7390   26.2420  -35.9722 C   0  0  1  0  0  0  0  0  0  0  0  0
  -25.2536   25.3012  -37.0791 C   0  0  0  0  0  0  0  0  0  0  0  0
  -27.2520   26.1644  -35.8937 C   0  0  1  0  0  0  0  0  0  0  0  0
  -27.8863   26.8806  -37.0446 C   0  0  0  0  0  0  0  0  0  0  0  0
  -29.4094   26.7483  -36.9019 C   0  0  0  0  0  0  0  0  0  0  0  0
  -29.7229   25.3050  -37.0513 C   0  0  2  0  0  0  0  0  0  0  0  0
  -29.2148   24.7231  -38.3453 C   0  0  0  0  0  0  0  0  0  0  0  0
  1  2  3  0
  2  3  1  0
  3  4  1  6
  3  5  1  0
  5  6  1  0
  7  6  1  6
  7  8  1  0
  8  9  1  1
  9 10  1  0
 10 11  1  0
 11 12  2  0
 12 13  1  0
 13 14  2  0
 13 15  1  0
 15 16  1  0
 16 17  1  0
 17 18  1  6
 17 19  1  0
 19 20  1  6
 20 21  1  0
 21 22  1  0
 22 23  1  6
 22  3  1  0
 22  7  1  0
 19  8  1  0
 17 11  1  0
M  END
$$$$
