
     RDKit          3D

 32 35  0  0  0  0  0  0  0  0999 V2000
  -21.2667   43.7415  -23.3802 C   0  0  0  0  0  0  0  0  0  0  0  0
  -20.3853   42.7997  -24.1372 C   0  0  0  0  0  0  0  0  0  0  0  0
  -20.2325   42.7110  -25.4606 N   0  0  0  0  0  0  0  0  0  0  0  0
  -19.3588   41.7585  -25.7305 N   0  0  0  0  0  0  0  0  0  0  0  0
  -18.9344   41.2152  -24.5522 C   0  0  0  0  0  0  0  0  0  0  0  0
  -17.9495   40.1011  -24.5307 C   0  0  0  0  0  0  0  0  0  0  0  0
  -19.5624   41.8490  -23.5156 C   0  0  0  0  0  0  0  0  0  0  0  0
  -19.4432   41.6385  -22.0801 C   0  0  0  0  0  0  0  0  0  0  0  0
  -18.3994   42.4812  -21.5078 C   0  0  0  0  0  0  0  0  0  0  0  0
  -17.7471   43.9722  -22.3638 S   0  0  0  0  0  0  0  0  0  0  0  0
  -16.6122   44.4095  -21.0540 C   0  0  0  0  0  0  0  0  0  0  0  0
  -16.7992   43.4592  -20.1298 C   0  0  0  0  0  0  0  0  0  0  0  0
  -17.6982   42.4696  -20.3337 C   0  0  0  0  0  0  0  0  0  0  0  0
  -17.9706   41.3317  -19.3794 C   0  0  0  0  0  0  0  0  0  0  0  0
  -17.0581   40.4819  -19.2340 O   0  0  0  0  0  0  0  0  0  0  0  0
  -19.1572   41.1955  -18.6708 N   0  0  0  0  0  0  0  0  0  0  0  0
  -20.1795   42.2377  -18.6008 C   0  0  0  0  0  0  0  0  0  0  0  0
  -21.2773   41.5960  -17.8136 C   0  0  2  0  0  0  0  0  0  0  0  0
  -21.2467   42.0682  -16.5170 O   0  0  0  0  0  0  0  0  0  0  0  0
  -20.9188   40.1212  -17.8983 C   0  0  0  0  0  0  0  0  0  0  0  0
  -19.5465   40.1258  -17.9488 O   0  0  0  0  0  0  0  0  0  0  0  0
  -15.9756   43.6192  -18.9725 C   0  0  0  0  0  0  0  0  0  0  0  0
  -16.0343   42.8196  -18.0345 O   0  0  0  0  0  0  0  0  0  0  0  0
  -15.1189   44.6393  -18.8742 N   0  0  0  0  0  0  0  0  0  0  0  0
  -14.3284   44.7071  -17.6436 C   0  0  0  0  0  0  0  0  0  0  0  0
  -14.9751   45.5645  -19.8365 C   0  0  0  0  0  0  0  0  0  0  0  0
  -14.1490   46.4837  -19.6586 O   0  0  0  0  0  0  0  0  0  0  0  0
  -15.7458   45.4374  -20.9509 N   0  0  0  0  0  0  0  0  0  0  0  0
  -15.6302   46.4016  -21.9900 C   0  0  0  0  0  0  0  0  0  0  0  0
  -16.7549   47.3922  -21.9312 C   0  0  0  0  0  0  0  0  0  0  0  0
  -16.7228   48.3656  -23.0878 C   0  0  0  0  0  0  0  0  0  0  0  0
  -16.8002   48.1907  -20.6482 C   0  0  0  0  0  0  0  0  0  0  0  0
  1  2  1  0
  2  3  2  0
  3  4  1  0
  4  5  1  0
  5  6  1  0
  5  7  2  0
  7  8  1  0
  8  9  1  0
  9 10  1  0
 10 11  1  0
 11 12  2  0
 12 13  1  0
 13 14  1  0
 14 15  2  0
 14 16  1  0
 16 17  1  0
 17 18  1  0
 18 19  1  1
 18 20  1  0
 20 21  1  0
 12 22  1  0
 22 23  2  0
 22 24  1  0
 24 25  1  0
 24 26  1  0
 26 27  2  0
 26 28  1  0
 28 29  1  0
 29 30  1  0
 30 31  1  0
 30 32  1  0
  7  2  1  0
 13  9  2  0
 21 16  1  0
 28 11  1  0
M  END
$$$$
