
     RDKit          3D

 33 36  0  0  0  0  0  0  0  0999 V2000
   -8.5846   40.1370  -13.6730 C   0  0  0  0  0  0  0  0  0  0  0  0
   -8.8897   40.7599  -14.7543 C   0  0  0  0  0  0  0  0  0  0  0  0
  -10.1619   41.0257  -15.3022 C   0  0  0  0  0  0  0  0  0  0  0  0
  -11.2203   40.5066  -14.7278 O   0  0  0  0  0  0  0  0  0  0  0  0
  -10.4649   41.8018  -16.4245 N   0  0  0  0  0  0  0  0  0  0  0  0
  -11.8088   41.6223  -17.0478 C   0  0  0  0  0  0  0  0  0  0  0  0
  -12.5216   42.9227  -17.0576 C   0  0  0  0  0  0  0  0  0  0  0  0
  -11.6887   43.9912  -17.7803 C   0  0  0  0  0  0  0  0  0  0  0  0
  -12.3773   44.4034  -18.8780 O   0  0  0  0  0  0  0  0  0  0  0  0
  -13.5892   44.9662  -19.0439 C   0  0  0  0  0  0  0  0  0  0  0  0
  -14.6263   44.1116  -19.4665 C   0  0  0  0  0  0  0  0  0  0  0  0
  -15.8865   44.6032  -19.6587 C   0  0  0  0  0  0  0  0  0  0  0  0
  -16.8700   43.7456  -20.0694 C   0  0  0  0  0  0  0  0  0  0  0  0
  -16.6489   42.3668  -20.3073 N   0  0  0  0  0  0  0  0  0  0  0  0
  -17.7432   41.5321  -20.7223 C   0  0  0  0  0  0  0  0  0  0  0  0
  -18.3523   41.6931  -21.9545 C   0  0  0  0  0  0  0  0  0  0  0  0
  -19.4002   40.8876  -22.3417 C   0  0  0  0  0  0  0  0  0  0  0  0
  -19.8841   39.8916  -21.5220 C   0  0  0  0  0  0  0  0  0  0  0  0
  -21.2166   38.8692  -22.0178 Cl  0  0  0  0  0  0  0  0  0  0  0  0
  -19.2834   39.7290  -20.3007 C   0  0  0  0  0  0  0  0  0  0  0  0
  -19.8580   38.4749  -19.2130 Cl  0  0  0  0  0  0  0  0  0  0  0  0
  -18.2324   40.5326  -19.9052 C   0  0  0  0  0  0  0  0  0  0  0  0
  -17.6315   40.3735  -18.6892 F   0  0  0  0  0  0  0  0  0  0  0  0
  -18.1192   44.2704  -20.2520 N   0  0  0  0  0  0  0  0  0  0  0  0
  -18.3756   45.5674  -20.0396 C   0  0  0  0  0  0  0  0  0  0  0  0
  -17.4365   46.4100  -19.6424 N   0  0  0  0  0  0  0  0  0  0  0  0
  -16.1936   45.9462  -19.4485 C   0  0  0  0  0  0  0  0  0  0  0  0
  -15.1753   46.7485  -19.0412 C   0  0  0  0  0  0  0  0  0  0  0  0
  -13.8740   46.2759  -18.8354 C   0  0  0  0  0  0  0  0  0  0  0  0
  -12.8969   47.1761  -18.4172 O   0  0  0  0  0  0  0  0  0  0  0  0
  -12.8967   47.6738  -17.0967 C   0  0  0  0  0  0  0  0  0  0  0  0
  -10.3925   43.3306  -18.2771 C   0  0  0  0  0  0  0  0  0  0  0  0
   -9.6487   42.7689  -17.0789 C   0  0  0  0  0  0  0  0  0  0  0  0
  1  2  2  0
  2  3  1  0
  3  4  2  0
  3  5  1  0
  5  6  1  0
  6  7  1  0
  7  8  1  0
  8  9  1  0
  9 10  1  0
 10 11  2  0
 11 12  1  0
 12 13  2  0
 13 14  1  0
 14 15  1  0
 15 16  2  0
 16 17  1  0
 17 18  2  0
 18 19  1  0
 18 20  1  0
 20 21  1  0
 20 22  2  0
 22 23  1  0
 13 24  1  0
 24 25  2  0
 25 26  1  0
 26 27  2  0
 27 28  1  0
 28 29  2  0
 29 30  1  0
 30 31  1  0
  8 32  1  0
 32 33  1  0
 33  5  1  0
 29 10  1  0
 27 12  1  0
 22 15  1  0
M  END
$$$$
