
     RDKit          3D

 22 24  0  0  0  0  0  0  0  0999 V2000
  -18.9868   45.7811  -22.6497 C   0  0  0  0  0  0  0  0  0  0  0  0
  -18.6483   45.4062  -21.3207 N   0  0  0  0  0  0  0  0  0  0  0  0
  -17.4386   44.6698  -21.1799 C   0  0  1  0  0  0  0  0  0  0  0  0
  -17.4196   44.4726  -19.6556 C   0  0  0  0  0  0  0  0  0  0  0  0
  -18.8750   44.1209  -19.4211 C   0  0  0  0  0  0  0  0  0  0  0  0
  -19.6221   44.5656  -20.6707 C   0  0  2  0  0  0  0  0  0  0  0  0
  -19.9091   43.4056  -21.5739 C   0  0  0  0  0  0  0  0  0  0  0  0
  -18.6903   42.6410  -21.9929 C   0  0  2  0  0  0  0  0  0  0  0  0
  -18.7358   41.3823  -21.3436 O   0  0  0  0  0  0  0  0  0  0  0  0
  -18.9054   40.1853  -22.0130 C   0  0  0  0  0  0  0  0  0  0  0  0
  -19.0227   40.2562  -23.2709 O   0  0  0  0  0  0  0  0  0  0  0  0
  -18.9487   38.9018  -21.3186 C   0  0  0  0  0  0  0  0  0  0  0  0
  -18.8357   38.6888  -19.9785 C   0  0  0  0  0  0  0  0  0  0  0  0
  -18.9236   37.3622  -19.7001 N   0  0  0  0  0  0  0  0  0  0  0  0
  -19.0915   36.7442  -20.8652 C   0  0  0  0  0  0  0  0  0  0  0  0
  -19.2352   35.3947  -21.1351 C   0  0  0  0  0  0  0  0  0  0  0  0
  -19.3986   34.9686  -22.4236 C   0  0  0  0  0  0  0  0  0  0  0  0
  -19.4238   35.8625  -23.4713 C   0  0  0  0  0  0  0  0  0  0  0  0
  -19.2785   37.1976  -23.1717 C   0  0  0  0  0  0  0  0  0  0  0  0
  -19.1122   37.6811  -21.9044 C   0  0  0  0  0  0  0  0  0  0  0  0
  -17.4047   43.3378  -21.8200 C   0  0  0  0  0  0  0  0  0  0  0  0
  -18.7736   40.5690  -21.4399 Cl  0  0  0  0  0  0  0  0  0  0  0  0
  1  2  1  0
  2  3  1  0
  3  4  1  1
  4  5  1  0
  6  5  1  1
  6  7  1  0
  7  8  1  0
  8  9  1  1
  9 10  1  0
 10 11  2  0
 10 12  1  0
 12 13  2  0
 13 14  1  0
 14 15  1  0
 15 16  2  0
 16 17  1  0
 17 18  2  0
 18 19  1  0
 19 20  2  0
  8 21  1  0
  6  2  1  0
 20 12  1  0
 21  3  1  0
 20 15  1  0
M  END
$$$$
