
     RDKit          3D

 43 49  0  0  0  0  0  0  0  0999 V2000
  -18.2028   40.8714  -20.5501 C   0  0  0  0  0  0  0  0  0  0  0  0
  -16.8628   41.4556  -20.1085 C   0  0  0  0  0  0  0  0  0  0  0  0
  -16.9148   42.9051  -20.3951 C   0  0  0  0  0  0  0  0  0  0  0  0
  -18.0694   43.4430  -20.9551 C   0  0  0  0  0  0  0  0  0  0  0  0
  -18.1557   44.7876  -21.2356 C   0  0  0  0  0  0  0  0  0  0  0  0
  -17.1261   45.6084  -20.9742 N   0  0  0  0  0  0  0  0  0  0  0  0
  -16.0004   45.1135  -20.4333 C   0  0  0  0  0  0  0  0  0  0  0  0
  -14.9618   46.0168  -20.1801 C   0  0  0  0  0  0  0  0  0  0  0  0
  -13.7923   45.5482  -19.6232 C   0  0  0  0  0  0  0  0  0  0  0  0
  -13.6594   44.2106  -19.3247 C   0  0  0  0  0  0  0  0  0  0  0  0
  -12.5020   43.6805  -18.7612 O   0  0  0  0  0  0  0  0  0  0  0  0
  -12.1293   44.1694  -17.4945 C   0  0  0  0  0  0  0  0  0  0  0  0
  -11.9249   45.4020  -17.3191 O   0  0  0  0  0  0  0  0  0  0  0  0
  -11.9768   43.2929  -16.3956 N   0  0  0  0  0  0  0  0  0  0  0  0
  -11.9595   43.7956  -15.0144 C   0  0  0  0  0  0  0  0  0  0  0  0
  -11.6619   42.5954  -14.0837 C   0  0  0  0  0  0  0  0  0  0  0  0
  -10.3824   42.0081  -14.5664 C   0  0  0  0  0  0  0  0  0  0  0  0
   -9.7863   41.0468  -13.7155 N   0  0  0  0  0  0  0  0  0  0  0  0
   -8.5915   40.4304  -14.2125 C   0  0  0  0  0  0  0  0  0  0  0  0
   -7.3416   40.9353  -13.5307 C   0  0  0  0  0  0  0  0  0  0  0  0
   -7.4748   40.9398  -12.0242 C   0  0  0  0  0  0  0  0  0  0  0  0
   -8.6453   41.8855  -11.7145 C   0  0  0  0  0  0  0  0  0  0  0  0
   -9.8535   41.2060  -12.3237 C   0  0  0  0  0  0  0  0  0  0  0  0
  -10.6039   41.3585  -15.9133 C   0  0  0  0  0  0  0  0  0  0  0  0
  -11.8310   41.8641  -16.6183 C   0  0  0  0  0  0  0  0  0  0  0  0
  -14.7058   43.3123  -19.5820 C   0  0  0  0  0  0  0  0  0  0  0  0
  -15.8782   43.7597  -20.1366 C   0  0  0  0  0  0  0  0  0  0  0  0
  -19.4849   45.0532  -21.8163 C   0  0  0  0  0  0  0  0  0  0  0  0
  -20.0099   46.2425  -22.2450 C   0  0  0  0  0  0  0  0  0  0  0  0
  -21.2899   46.2423  -22.7582 C   0  0  0  0  0  0  0  0  0  0  0  0
  -21.9945   45.0621  -22.8241 C   0  0  0  0  0  0  0  0  0  0  0  0
  -21.3972   43.8916  -22.3699 C   0  0  0  0  0  0  0  0  0  0  0  0
  -22.0896   42.8247  -22.4518 O   0  0  0  0  0  0  0  0  0  0  0  0
  -20.1524   43.8871  -21.8700 N   0  0  0  0  0  0  0  0  0  0  0  0
  -19.3411   42.8062  -21.3466 C   0  0  0  0  0  0  0  0  0  0  0  0
  -23.3953   45.0300  -23.3790 C   0  0  0  0  0  0  0  0  0  0  0  0
  -23.5618   46.0107  -24.3687 O   0  0  0  0  0  0  0  0  0  0  0  0
  -22.7107   47.1256  -24.4662 C   0  0  0  0  0  0  0  0  0  0  0  0
  -22.6684   47.7168  -25.5528 O   0  0  0  0  0  0  0  0  0  0  0  0
  -21.9546   47.4710  -23.2509 C   0  0  1  0  0  0  0  0  0  0  0  0
  -22.8658   47.8695  -22.2738 O   0  0  0  0  0  0  0  0  0  0  0  0
  -20.9820   48.5995  -23.4658 C   0  0  0  0  0  0  0  0  0  0  0  0
  -20.0208   48.3289  -24.5927 C   0  0  0  0  0  0  0  0  0  0  0  0
  1  2  1  0
  2  3  1  0
  3  4  2  0
  4  5  1  0
  5  6  2  0
  6  7  1  0
  7  8  2  0
  8  9  1  0
  9 10  2  0
 10 11  1  0
 11 12  1  0
 12 13  2  0
 12 14  1  0
 14 15  1  0
 15 16  1  0
 16 17  1  0
 17 18  1  0
 18 19  1  0
 19 20  1  0
 20 21  1  0
 21 22  1  0
 22 23  1  0
 17 24  1  0
 24 25  1  0
 10 26  1  0
 26 27  2  0
  5 28  1  0
 28 29  2  0
 29 30  1  0
 30 31  2  0
 31 32  1  0
 32 33  2  0
 32 34  1  0
 34 35  1  0
 31 36  1  0
 36 37  1  0
 37 38  1  0
 38 39  2  0
 38 40  1  0
 40 41  1  1
 40 42  1  0
 42 43  1  0
 27  3  1  0
 34 28  1  0
 35  4  1  0
 27  7  1  0
 40 30  1  0
 25 14  1  0
 23 18  1  0
M  END
$$$$
