
     RDKit          3D

 11  9  0  0  0  0  0  0  0  0999 V2000
  -12.1881   -3.5336  -34.8231 C   0  0  0  0  0  0  0  0  0  0  0  0
  -13.0051   -2.3368  -34.4661 C   0  0  0  0  0  0  0  0  0  0  0  0
  -13.8603   -1.9222  -35.3006 O   0  0  0  0  0  0  0  0  0  0  0  0
  -12.8444   -1.6819  -33.2528 O   0  0  0  0  0  0  0  0  0  0  0  0
  -13.6753   -0.5526  -33.0166 C   0  0  0  0  0  0  0  0  0  0  0  0
  -13.4008    0.0646  -31.6671 C   0  0  0  0  0  0  0  0  0  0  0  0
  -14.2584    1.1939  -31.4754 N   0  0  0  0  0  4  0  0  0  0  0  0
  -13.5041    2.4089  -31.5197 C   0  0  0  0  0  0  0  0  0  0  0  0
  -15.3429    1.2739  -32.4250 C   0  0  0  0  0  0  0  0  0  0  0  0
  -14.8813    1.0820  -30.1494 C   0  0  0  0  0  0  0  0  0  0  0  0
  -13.7907   -0.0656  -32.4347 Cl  0  0  0  0  0 15  0  0  0  0  0  0
  1  2  1  0
  2  3  2  0
  2  4  1  0
  4  5  1  0
  5  6  1  0
  6  7  1  0
  7  8  1  0
  7  9  1  0
  7 10  1  0
M  CHG  2   7   1  11  -1
M  END
$$$$
