
     RDKit          3D

 24 26  0  0  0  0  0  0  0  0999 V2000
  -27.6255   16.9330  -21.1586 C   0  0  0  0  0  0  0  0  0  0  0  0
  -27.9571   16.2727  -22.3991 N   0  0  0  0  0  4  0  0  0  0  0  0
  -27.2917   16.9598  -23.4718 C   0  0  0  0  0  0  0  0  0  0  0  0
  -27.6633   14.8544  -22.3617 C   0  0  1  0  0  0  0  0  0  0  0  0
  -28.1557   14.3186  -21.0522 C   0  0  0  0  0  0  0  0  0  0  0  0
  -29.5936   14.6025  -20.7727 C   0  0  2  0  0  0  0  0  0  0  0  0
  -30.3092   13.3776  -20.9293 O   0  0  0  0  0  0  0  0  0  0  0  0
  -30.9281   12.7320  -19.8720 C   0  0  0  0  0  0  0  0  0  0  0  0
  -30.8410   13.2682  -18.7373 O   0  0  0  0  0  0  0  0  0  0  0  0
  -31.6721   11.4405  -20.0866 C   0  0  2  0  0  0  0  0  0  0  0  0
  -32.7915   11.7706  -21.0652 C   0  0  0  0  0  0  0  0  0  0  0  0
  -33.5653   10.6750  -21.3600 O   0  0  0  0  0  0  0  0  0  0  0  0
  -32.2105   11.0114  -18.7842 C   0  0  0  0  0  0  0  0  0  0  0  0
  -31.7948    9.8349  -18.2150 C   0  0  0  0  0  0  0  0  0  0  0  0
  -32.3193    9.4472  -16.9780 C   0  0  0  0  0  0  0  0  0  0  0  0
  -33.2340   10.2258  -16.3398 C   0  0  0  0  0  0  0  0  0  0  0  0
  -33.6559   11.4203  -16.9177 C   0  0  0  0  0  0  0  0  0  0  0  0
  -33.1373   11.8049  -18.1423 C   0  0  0  0  0  0  0  0  0  0  0  0
  -30.1945   15.7114  -21.5406 C   0  0  0  0  0  0  0  0  0  0  0  0
  -29.3769   16.2611  -22.6494 C   0  0  2  0  0  0  0  0  0  0  0  0
  -29.4987   15.3396  -23.8419 C   0  0  1  0  0  0  0  0  0  0  0  0
  -28.4184   15.1207  -24.6657 O   0  0  0  0  0  0  0  0  0  0  0  0
  -28.4267   14.3077  -23.5364 C   0  0  1  0  0  0  0  0  0  0  0  0
  -30.2690   13.7262  -20.7601 Br  0  0  0  0  0 15  0  0  0  0  0  0
  1  2  1  0
  2  3  1  0
  2  4  1  0
  4  5  1  1
  5  6  1  0
  6  7  1  6
  7  8  1  0
  8  9  2  0
  8 10  1  0
 10 11  1  6
 11 12  1  0
 10 13  1  0
 13 14  2  0
 14 15  1  0
 15 16  2  0
 16 17  1  0
 17 18  2  0
  6 19  1  0
 20 19  1  1
 20 21  1  0
 21 22  1  6
 23 22  1  6
 20  2  1  0
 23 21  1  0
 23  4  1  0
 18 13  1  0
M  CHG  2   2   1  24  -1
M  END
$$$$
