
     RDKit          3D

 20 21  0  0  0  0  0  0  0  0999 V2000
  -17.1462   42.7279  -21.3297 O   0  0  0  0  0  0  0  0  0  0  0  0
  -17.7399   42.5746  -20.2482 C   0  0  0  0  0  0  0  0  0  0  0  0
  -17.0089   42.8657  -19.0595 N   0  0  0  0  0  0  0  0  0  0  0  0
  -15.6952   43.4084  -19.1242 C   0  0  0  0  0  0  0  0  0  0  0  0
  -15.3741   44.3776  -20.0550 C   0  0  0  0  0  0  0  0  0  0  0  0
  -14.0980   44.8855  -20.0968 C   0  0  0  0  0  0  0  0  0  0  0  0
  -13.6814   46.1126  -21.2714 Cl  0  0  0  0  0  0  0  0  0  0  0  0
  -13.1598   44.4279  -19.2185 C   0  0  0  0  0  0  0  0  0  0  0  0
  -13.4769   43.4530  -18.2798 C   0  0  0  0  0  0  0  0  0  0  0  0
  -12.2280   42.9043  -17.1767 Cl  0  0  0  0  0  0  0  0  0  0  0  0
  -14.7551   42.9317  -18.2242 C   0  0  0  0  0  0  0  0  0  0  0  0
  -19.1246   42.1216  -20.0758 C   0  0  1  0  0  0  0  0  0  0  0  0
  -20.0316   43.0358  -20.8415 C   0  0  0  0  0  0  0  0  0  0  0  0
  -19.6636   42.8907  -22.3202 C   0  0  0  0  0  0  0  0  0  0  0  0
  -20.1963   41.5125  -22.7237 C   0  0  0  0  0  0  0  0  0  0  0  0
  -19.4054   40.5004  -21.9706 C   0  0  0  0  0  0  0  0  0  0  0  0
  -19.3738   40.7060  -20.4912 C   0  0  1  0  0  0  0  0  0  0  0  0
  -18.4166   39.7505  -19.9000 C   0  0  0  0  0  0  0  0  0  0  0  0
  -18.2164   39.7251  -18.6666 O   0  0  0  0  0  0  0  0  0  0  0  0
  -17.7054   38.8503  -20.6711 O   0  0  0  0  0  0  0  0  0  0  0  0
  1  2  2  0
  2  3  1  0
  3  4  1  0
  4  5  2  0
  5  6  1  0
  6  7  1  0
  6  8  2  0
  8  9  1  0
  9 10  1  0
  9 11  2  0
 12  2  1  6
 12 13  1  0
 13 14  1  0
 14 15  1  0
 15 16  1  0
 16 17  1  0
 17 18  1  1
 18 19  2  0
 18 20  1  0
 11  4  1  0
 17 12  1  0
M  END
$$$$
