
     RDKit          3D

 26 28  0  0  0  0  0  0  0  0999 V2000
  -13.0526   17.6982  -13.3313 O   0  0  0  0  0  0  0  0  0  0  0  0
  -14.2129   17.5616  -12.9148 N   0  0  0  0  0  4  0  0  0  0  0  0
  -14.9231   16.4705  -13.2735 O   0  0  0  0  0  1  0  0  0  0  0  0
  -14.7550   18.5541  -12.0762 C   0  0  0  0  0  0  0  0  0  0  0  0
  -15.5856   19.5117  -12.6359 C   0  0  0  0  0  0  0  0  0  0  0  0
  -16.1214   20.5136  -11.8606 C   0  0  0  0  0  0  0  0  0  0  0  0
  -17.1755   21.7431  -12.5288 Cl  0  0  0  0  0  0  0  0  0  0  0  0
  -15.8197   20.5548  -10.5072 C   0  0  0  0  0  0  0  0  0  0  0  0
  -14.9955   19.5956   -9.9769 C   0  0  0  0  0  0  0  0  0  0  0  0
  -14.4434   18.5717  -10.7486 C   0  0  0  0  0  0  0  0  0  0  0  0
  -13.4446   17.4215   -9.9408 S   0  0  0  0  0  6  0  0  0  0  0  0
  -14.1254   16.9797   -8.6415 O   0  0  0  0  0  0  0  0  0  0  0  0
  -13.3330   16.1747  -10.7620 O   0  0  0  0  0  0  0  0  0  0  0  0
  -11.8714   18.0242   -9.5785 N   0  0  0  0  0  0  0  0  0  0  0  0
  -11.7409   19.3168  -10.2583 C   0  0  0  0  0  0  0  0  0  0  0  0
  -10.5487   20.0840   -9.7254 C   0  0  0  0  0  0  0  0  0  0  0  0
   -9.7836   19.2094   -8.8967 N   0  0  0  0  0  0  0  0  0  0  0  0
   -8.4286   19.5939   -8.6869 C   0  0  0  0  0  0  0  0  0  0  0  0
   -8.2328   20.9833   -8.2583 C   0  0  0  0  0  0  0  0  0  0  0  0
   -8.3085   21.3474   -6.9307 C   0  0  0  0  0  0  0  0  0  0  0  0
   -8.1287   22.6443   -6.5029 C   0  0  0  0  0  0  0  0  0  0  0  0
   -7.8602   23.6522   -7.4028 C   0  0  0  0  0  0  0  0  0  0  0  0
   -7.7803   23.3096   -8.7353 C   0  0  0  0  0  0  0  0  0  0  0  0
   -7.9639   21.9958   -9.1549 C   0  0  0  0  0  0  0  0  0  0  0  0
  -10.5088   18.8579   -7.7154 C   0  0  0  0  0  0  0  0  0  0  0  0
  -11.8645   18.3309   -8.1393 C   0  0  0  0  0  0  0  0  0  0  0  0
  1  2  2  0
  2  3  1  0
  2  4  1  0
  4  5  2  0
  5  6  1  0
  6  7  1  0
  6  8  2  0
  8  9  1  0
  9 10  2  0
 10 11  1  0
 11 12  2  0
 11 13  2  0
 11 14  1  0
 14 15  1  0
 15 16  1  0
 16 17  1  0
 17 18  1  0
 18 19  1  0
 19 20  2  0
 20 21  1  0
 21 22  2  0
 22 23  1  0
 23 24  2  0
 17 25  1  0
 25 26  1  0
 10  4  1  0
 26 14  1  0
 24 19  1  0
M  CHG  2   2   1   3  -1
M  END
$$$$
