
     RDKit          3D

 38 41  0  0  0  0  0  0  0  0999 V2000
  -10.8577   13.7624  -51.4779 C   0  0  0  0  0  0  0  0  0  0  0  0
  -10.4210   14.7739  -50.7403 C   0  0  0  0  0  0  0  0  0  0  0  0
  -11.0936   15.1658  -49.5232 C   0  0  0  0  0  0  0  0  0  0  0  0
  -12.1165   14.5011  -49.1490 O   0  0  0  0  0  0  0  0  0  0  0  0
  -10.6656   16.2392  -48.7476 N   0  0  0  0  0  0  0  0  0  0  0  0
  -10.2410   17.4970  -49.3856 C   0  0  0  0  0  0  0  0  0  0  0  0
   -9.7564   18.4158  -48.2507 C   0  0  0  0  0  0  0  0  0  0  0  0
  -10.8211   18.5665  -47.3558 N   0  0  0  0  0  0  0  0  0  0  0  0
  -11.1807   19.8092  -46.8348 C   0  0  0  0  0  0  0  0  0  0  0  0
  -11.9900   19.8904  -45.6017 C   0  0  0  0  0  0  0  0  0  0  0  0
  -12.6190   18.5942  -45.1479 C   0  0  0  0  0  0  0  0  0  0  0  0
  -13.3430   18.8657  -43.8884 N   0  0  0  0  0  0  0  0  0  0  0  0
  -14.5616   19.4146  -43.8804 C   0  0  0  0  0  0  0  0  0  0  0  0
  -15.1428   19.6850  -44.9527 O   0  0  0  0  0  0  0  0  0  0  0  0
  -15.2007   19.6918  -42.6879 C   0  0  0  0  0  0  0  0  0  0  0  0
  -16.5328   20.2644  -42.6215 C   0  0  0  0  0  0  0  0  0  0  0  0
  -17.6597   19.4764  -42.5774 C   0  0  0  0  0  0  0  0  0  0  0  0
  -17.4965   17.7165  -42.5816 Cl  0  0  0  0  0  0  0  0  0  0  0  0
  -18.9558   20.0032  -42.5276 C   0  0  0  0  0  0  0  0  0  0  0  0
  -20.0529   19.1636  -42.4830 O   0  0  0  0  0  0  0  0  0  0  0  0
  -21.3836   19.5385  -42.3480 C   0  0  0  0  0  0  0  0  0  0  0  0
  -19.1313   21.3634  -42.5225 C   0  0  0  0  0  0  0  0  0  0  0  0
  -18.0094   22.1831  -42.5668 C   0  0  0  0  0  0  0  0  0  0  0  0
  -18.0679   23.5536  -42.5677 O   0  0  0  0  0  0  0  0  0  0  0  0
  -19.1651   24.2593  -42.0426 C   0  0  0  0  0  0  0  0  0  0  0  0
  -16.7231   21.6193  -42.6151 C   0  0  0  0  0  0  0  0  0  0  0  0
  -15.3001   22.6732  -42.6695 Cl  0  0  0  0  0  0  0  0  0  0  0  0
  -14.5835   19.4037  -41.4737 C   0  0  0  0  0  0  0  0  0  0  0  0
  -13.3372   18.8421  -41.4951 C   0  0  0  0  0  0  0  0  0  0  0  0
  -12.6447   18.5229  -40.3451 C   0  0  0  0  0  0  0  0  0  0  0  0
  -11.4252   17.9783  -40.4843 N   0  0  0  0  0  0  0  0  0  0  0  0
  -10.8401   17.7252  -41.6680 C   0  0  0  0  0  0  0  0  0  0  0  0
   -9.5220   17.1549  -41.7379 N   0  0  0  0  0  0  0  0  0  0  0  0
   -8.8562   16.9533  -43.0008 C   0  0  0  0  0  0  0  0  0  0  0  0
  -11.5118   18.0336  -42.7954 N   0  0  0  0  0  0  0  0  0  0  0  0
  -12.7329   18.5799  -42.7270 C   0  0  0  0  0  0  0  0  0  0  0  0
  -11.4426   17.4001  -46.8436 C   0  0  0  0  0  0  0  0  0  0  0  0
  -10.6266   16.1947  -47.3124 C   0  0  0  0  0  0  0  0  0  0  0  0
  1  2  2  0
  2  3  1  0
  3  4  2  0
  3  5  1  0
  5  6  1  0
  6  7  1  0
  7  8  1  0
  8  9  1  0
  9 10  1  0
 10 11  1  0
 11 12  1  0
 12 13  1  0
 13 14  2  0
 13 15  1  0
 15 16  1  0
 16 17  2  0
 17 18  1  0
 17 19  1  0
 19 20  1  0
 20 21  1  0
 19 22  2  0
 22 23  1  0
 23 24  1  0
 24 25  1  0
 23 26  2  0
 26 27  1  0
 15 28  2  0
 28 29  1  0
 29 30  2  0
 30 31  1  0
 31 32  2  0
 32 33  1  0
 33 34  1  0
 32 35  1  0
 35 36  2  0
  8 37  1  0
 37 38  1  0
 38  5  1  0
 36 12  1  0
 26 16  1  0
 36 29  1  0
M  END
$$$$
