
     RDKit          3D

 37 39  0  0  0  0  0  0  0  0999 V2000
  -17.5112   39.0817  -19.5946 O   0  0  0  0  0  0  0  0  0  0  0  0
  -17.9026   38.8421  -20.7388 C   0  0  0  0  0  0  0  0  0  0  0  0
  -17.9940   37.4922  -21.3096 C   0  0  0  0  0  0  0  0  0  0  0  0
  -18.8887   36.6271  -20.8707 C   0  0  0  0  0  0  0  0  0  0  0  0
  -19.1036   35.2930  -21.4126 C   0  0  0  0  0  0  0  0  0  0  0  0
  -18.0951   34.4694  -21.8591 C   0  0  0  0  0  0  0  0  0  0  0  0
  -18.3484   33.1905  -22.3740 C   0  0  0  0  0  0  0  0  0  0  0  0
  -19.6341   32.7030  -22.4535 C   0  0  0  0  0  0  0  0  0  0  0  0
  -19.9277   31.4408  -22.9573 O   0  0  0  0  0  0  0  0  0  0  0  0
  -20.6494   33.5231  -22.0078 C   0  0  0  0  0  0  0  0  0  0  0  0
  -21.9516   33.0494  -22.0799 O   0  0  0  0  0  0  0  0  0  0  0  0
  -20.3988   34.7815  -21.5014 C   0  0  0  0  0  0  0  0  0  0  0  0
  -18.2810   39.8939  -21.5435 O   0  0  0  0  0  0  0  0  0  0  0  0
  -18.9544   41.0377  -21.0593 C   0  0  2  0  0  0  0  0  0  0  0  0
  -20.4265   40.8051  -21.3979 C   0  0  0  0  0  0  0  0  0  0  0  0
  -21.2944   41.9186  -20.8656 C   0  0  2  0  0  0  0  0  0  0  0  0
  -21.2476   41.8984  -19.4751 O   0  0  0  0  0  0  0  0  0  0  0  0
  -22.6926   41.5976  -21.2560 C   0  0  0  0  0  0  0  0  0  0  0  0
  -22.9594   41.4804  -22.4983 O   0  0  0  0  0  0  0  0  0  0  0  0
  -23.7210   41.4175  -20.3739 O   0  0  0  0  0  0  0  0  0  0  0  0
  -20.8071   43.2082  -21.4511 C   0  0  0  0  0  0  0  0  0  0  0  0
  -19.6355   43.0002  -22.3855 C   0  0  1  0  0  0  0  0  0  0  0  0
  -19.1646   44.2926  -22.7131 O   0  0  0  0  0  0  0  0  0  0  0  0
  -18.4795   42.3093  -21.6862 C   0  0  1  0  0  0  0  0  0  0  0  0
  -17.9943   43.2401  -20.7108 O   0  0  0  0  0  0  0  0  0  0  0  0
  -16.7181   43.7485  -20.7508 C   0  0  0  0  0  0  0  0  0  0  0  0
  -16.3036   44.2322  -21.8288 O   0  0  0  0  0  0  0  0  0  0  0  0
  -15.8156   43.7536  -19.5944 C   0  0  0  0  0  0  0  0  0  0  0  0
  -14.9954   44.7297  -19.3430 C   0  0  0  0  0  0  0  0  0  0  0  0
  -14.0635   44.7154  -18.2253 C   0  0  0  0  0  0  0  0  0  0  0  0
  -14.0512   43.6248  -17.3393 C   0  0  0  0  0  0  0  0  0  0  0  0
  -13.1985   43.5489  -16.2663 C   0  0  0  0  0  0  0  0  0  0  0  0
  -12.3062   44.5694  -16.0226 C   0  0  0  0  0  0  0  0  0  0  0  0
  -11.4609   44.4492  -14.9231 O   0  0  0  0  0  0  0  0  0  0  0  0
  -12.3031   45.6343  -16.8699 C   0  0  0  0  0  0  0  0  0  0  0  0
  -11.4039   46.6773  -16.6361 O   0  0  0  0  0  0  0  0  0  0  0  0
  -13.1579   45.7034  -17.9399 C   0  0  0  0  0  0  0  0  0  0  0  0
  1  2  2  0
  2  3  1  0
  3  4  2  0
  4  5  1  0
  5  6  2  0
  6  7  1  0
  7  8  2  0
  8  9  1  0
  8 10  1  0
 10 11  1  0
 10 12  2  0
  2 13  1  0
 14 13  1  6
 14 15  1  0
 15 16  1  0
 16 17  1  1
 16 18  1  0
 18 19  2  0
 18 20  1  0
 16 21  1  0
 21 22  1  0
 22 23  1  1
 22 24  1  0
 24 25  1  1
 25 26  1  0
 26 27  2  0
 26 28  1  0
 28 29  2  0
 29 30  1  0
 30 31  2  0
 31 32  1  0
 32 33  2  0
 33 34  1  0
 33 35  1  0
 35 36  1  0
 35 37  2  0
 12  5  1  0
 24 14  1  0
 37 30  1  0
M  END
$$$$
