
     RDKit          3D

 42 46  0  0  0  0  0  0  0  0999 V2000
  -19.0213   36.0332  -21.7145 O   0  0  0  0  0  0  0  0  0  0  0  0
  -18.7137   36.9631  -20.8657 C   0  0  0  0  0  0  0  0  0  0  0  0
  -17.9922   36.4693  -19.8140 O   0  0  0  0  0  0  0  0  0  0  0  0
  -19.1530   38.3180  -21.1354 C   0  0  0  0  0  0  0  0  0  0  0  0
  -19.2462   39.1706  -20.0326 C   0  0  0  0  0  0  0  0  0  0  0  0
  -19.6467   40.4660  -20.1673 C   0  0  0  0  0  0  0  0  0  0  0  0
  -19.7110   41.3117  -18.9863 C   0  0  0  0  0  0  0  0  0  0  0  0
  -19.9048   42.5532  -19.0453 O   0  0  0  0  0  0  0  0  0  0  0  0
  -19.5521   40.7287  -17.7404 O   0  0  0  0  0  0  0  0  0  0  0  0
  -19.9819   41.0135  -21.3824 C   0  0  0  0  0  0  0  0  0  0  0  0
  -20.3883   42.4020  -21.4331 C   0  0  0  0  0  0  0  0  0  0  0  0
  -21.4784   42.7242  -20.8943 O   0  0  0  0  0  0  0  0  0  0  0  0
  -19.6257   43.4447  -22.0667 N   0  0  0  0  0  0  0  0  0  0  0  0
  -18.2835   43.1802  -22.4440 C   0  0  0  0  0  0  0  0  0  0  0  0
  -17.2564   43.1578  -21.4005 C   0  0  0  0  0  0  0  0  0  0  0  0
  -16.9253   41.9811  -20.7808 C   0  0  0  0  0  0  0  0  0  0  0  0
  -15.9714   41.9705  -19.7925 C   0  0  0  0  0  0  0  0  0  0  0  0
  -15.3224   43.1129  -19.3912 C   0  0  0  0  0  0  0  0  0  0  0  0
  -15.6386   44.3023  -19.9985 C   0  0  0  0  0  0  0  0  0  0  0  0
  -15.0005   45.4984  -19.6222 O   0  0  0  0  0  0  0  0  0  0  0  0
  -14.8305   45.8699  -18.3050 C   0  0  0  0  0  0  0  0  0  0  0  0
  -13.5952   46.2886  -17.8344 C   0  0  0  0  0  0  0  0  0  0  0  0
  -13.5177   46.6413  -16.5040 C   0  0  0  0  0  0  0  0  0  0  0  0
  -14.6358   46.5745  -15.6857 C   0  0  0  0  0  0  0  0  0  0  0  0
  -15.8629   46.1581  -16.1539 C   0  0  0  0  0  0  0  0  0  0  0  0
  -15.9406   45.8049  -17.4858 C   0  0  0  0  0  0  0  0  0  0  0  0
  -16.5980   44.2978  -20.9885 C   0  0  0  0  0  0  0  0  0  0  0  0
  -20.3438   44.6861  -22.3073 C   0  0  1  0  0  0  0  0  0  0  0  0
  -20.4056   45.6281  -21.1778 C   0  0  0  0  0  0  0  0  0  0  0  0
  -19.7425   46.9448  -21.2840 C   0  0  0  0  0  0  0  0  0  0  0  0
  -18.6994   47.1187  -22.3208 C   0  0  0  0  0  0  0  0  0  0  0  0
  -19.1780   46.4972  -23.5712 C   0  0  0  0  0  0  0  0  0  0  0  0
  -18.8023   47.1318  -24.7555 C   0  0  0  0  0  0  0  0  0  0  0  0
  -19.1988   46.6282  -25.9724 C   0  0  0  0  0  0  0  0  0  0  0  0
  -19.9706   45.4900  -25.9929 C   0  0  0  0  0  0  0  0  0  0  0  0
  -20.3177   44.8983  -24.8163 C   0  0  0  0  0  0  0  0  0  0  0  0
  -19.9394   45.3715  -23.5523 C   0  0  0  0  0  0  0  0  0  0  0  0
  -19.8913   40.1854  -22.4592 C   0  0  0  0  0  0  0  0  0  0  0  0
  -19.4777   38.8262  -22.3626 C   0  0  0  0  0  0  0  0  0  0  0  0
  -19.4231   38.0461  -23.5662 C   0  0  0  0  0  0  0  0  0  0  0  0
  -18.2683   37.6368  -23.9415 O   0  0  0  0  0  0  0  0  0  0  0  0
  -20.4462   37.6889  -24.3568 O   0  0  0  0  0  0  0  0  0  0  0  0
  1  2  2  0
  2  3  1  0
  2  4  1  0
  4  5  2  0
  5  6  1  0
  6  7  1  0
  7  8  2  0
  7  9  1  0
  6 10  2  0
 10 11  1  0
 11 12  2  0
 11 13  1  0
 13 14  1  0
 14 15  1  0
 15 16  2  0
 16 17  1  0
 17 18  2  0
 18 19  1  0
 19 20  1  0
 20 21  1  0
 21 22  2  0
 22 23  1  0
 23 24  2  0
 24 25  1  0
 25 26  2  0
 19 27  2  0
 28 13  1  1
 28 29  1  0
 29 30  1  0
 30 31  1  0
 31 32  1  0
 32 33  2  0
 33 34  1  0
 34 35  2  0
 35 36  1  0
 36 37  2  0
 10 38  1  0
 38 39  2  0
 39 40  1  0
 40 41  2  0
 40 42  1  0
 39  4  1  0
 27 15  1  0
 37 28  1  0
 26 21  1  0
 37 32  1  0
M  END
$$$$
