
     RDKit          3D

 28 31  0  0  0  0  0  0  0  0999 V2000
  -22.8102   38.3932  -22.7479 C   0  0  0  0  0  0  0  0  0  0  0  0
  -21.3916   38.4295  -22.6757 N   0  0  0  0  0  0  0  0  0  0  0  0
  -20.7431   39.1451  -23.6733 C   0  0  0  0  0  0  0  0  0  0  0  0
  -19.4246   39.7423  -23.4062 C   0  0  0  0  0  0  0  0  0  0  0  0
  -18.6345   38.8582  -22.4562 C   0  0  1  0  0  0  0  0  0  0  0  0
  -17.3625   39.4671  -22.2905 N   0  0  0  0  0  0  0  0  0  0  0  0
  -17.1813   40.8863  -22.2922 C   0  0  0  0  0  0  0  0  0  0  0  0
  -17.4320   41.4475  -23.3518 O   0  0  0  0  0  0  0  0  0  0  0  0
  -16.7496   41.6094  -21.1780 N   0  0  0  0  0  0  0  0  0  0  0  0
  -16.4391   42.9778  -21.0726 C   0  0  0  0  0  0  0  0  0  0  0  0
  -16.7416   43.8367  -22.1256 C   0  0  0  0  0  0  0  0  0  0  0  0
  -16.4382   45.1666  -22.0185 C   0  0  0  0  0  0  0  0  0  0  0  0
  -15.8367   45.6755  -20.8850 C   0  0  0  0  0  0  0  0  0  0  0  0
  -15.5257   47.0676  -20.7846 C   0  0  0  0  0  0  0  0  0  0  0  0
  -15.2608   48.2171  -20.6997 N   0  0  0  0  0  0  0  0  0  0  0  0
  -15.5208   44.8630  -19.8220 C   0  0  0  0  0  0  0  0  0  0  0  0
  -15.8442   43.5007  -19.9599 C   0  0  0  0  0  0  0  0  0  0  0  0
  -19.4451   38.7634  -21.1911 C   0  0  0  0  0  0  0  0  0  0  0  0
  -20.8140   38.2533  -21.4154 C   0  0  2  0  0  0  0  0  0  0  0  0
  -20.8748   36.7796  -21.0912 C   0  0  0  0  0  0  0  0  0  0  0  0
  -21.7128   36.1263  -20.2968 N   0  0  0  0  0  0  0  0  0  0  0  0
  -21.3885   34.8132  -20.3116 C   0  0  0  0  0  0  0  0  0  0  0  0
  -21.9194   33.7116  -19.6793 C   0  0  0  0  0  0  0  0  0  0  0  0
  -21.3651   32.4452  -19.8868 C   0  0  0  0  0  0  0  0  0  0  0  0
  -20.2834   32.2750  -20.7227 C   0  0  0  0  0  0  0  0  0  0  0  0
  -19.7750   33.3959  -21.3408 C   0  0  0  0  0  0  0  0  0  0  0  0
  -20.3053   34.6663  -21.1533 C   0  0  0  0  0  0  0  0  0  0  0  0
  -20.0151   35.8965  -21.6160 N   0  0  0  0  0  0  0  0  0  0  0  0
  1  2  1  0
  2  3  1  0
  3  4  1  0
  4  5  1  0
  5  6  1  1
  6  7  1  0
  7  8  2  0
  7  9  1  0
  9 10  1  0
 10 11  2  0
 11 12  1  0
 12 13  2  0
 13 14  1  0
 14 15  3  0
 13 16  1  0
 16 17  2  0
  5 18  1  0
 18 19  1  0
 19 20  1  6
 20 21  2  0
 21 22  1  0
 22 23  2  0
 23 24  1  0
 24 25  2  0
 25 26  1  0
 26 27  2  0
 27 28  1  0
 19  2  1  0
 28 20  1  0
 17 10  1  0
 27 22  1  0
M  END
$$$$
