
     RDKit          3D

  6  4  0  0  0  0  0  0  0  0999 V2000
  -31.3708   13.3877  -20.8603 Cl  0  0  0  0  0  0  0  0  0  0  0  0
  -30.3264   14.0926  -21.7027 N   0  0  0  0  0  0  0  0  0  0  0  0
  -31.1423   13.6567  -20.7935 C   0  0  0  0  0  0  0  0  0  0  0  0
  -32.1453   12.6709  -21.1118 N   0  0  0  0  0  0  0  0  0  0  0  0
  -31.1166   14.0987  -19.4554 N   0  0  0  0  0  0  0  0  0  0  0  0
  -29.9991   14.8031  -19.0080 N   0  0  0  0  0  0  0  0  0  0  0  0
  2  3  2  0
  3  4  1  0
  3  5  1  0
  5  6  1  0
M  END
$$$$
