
     RDKit          3D

 25 28  0  0  0  0  0  0  0  0999 V2000
  -17.3584   47.1371  -20.4327 C   0  0  0  0  0  0  0  0  0  0  0  0
  -16.9971   45.7302  -20.6309 C   0  0  0  0  0  0  0  0  0  0  0  0
  -15.7221   45.2486  -20.4768 C   0  0  0  0  0  0  0  0  0  0  0  0
  -15.3629   43.9483  -20.6551 C   0  0  0  0  0  0  0  0  0  0  0  0
  -16.3268   43.0025  -21.0211 C   0  0  0  0  0  0  0  0  0  0  0  0
  -16.1655   41.7244  -21.2333 N   0  0  0  0  0  0  0  0  0  0  0  0
  -16.9689   40.9131  -21.5427 C   0  0  0  0  0  0  0  0  0  0  0  0
  -17.1351   39.5118  -21.8416 N   0  0  0  0  0  0  0  0  0  0  0  0
  -18.3704   39.1154  -22.3795 C   0  0  0  0  0  0  0  0  0  0  0  0
  -19.3726   39.8503  -22.1930 O   0  0  0  0  0  0  0  0  0  0  0  0
  -18.4837   37.8264  -23.1675 C   0  0  0  0  0  0  0  0  0  0  0  0
  -19.8030   37.2148  -22.8149 C   0  0  0  0  0  0  0  0  0  0  0  0
  -19.8530   35.7837  -23.2086 C   0  0  0  0  0  0  0  0  0  0  0  0
  -20.3662   34.8575  -22.1698 C   0  0  0  0  0  0  0  0  0  0  0  0
  -20.2296   33.7421  -21.7710 N   0  0  0  0  0  0  0  0  0  0  0  0
  -20.7976   33.1490  -20.7605 C   0  0  0  0  0  0  0  0  0  0  0  0
  -20.6174   31.8324  -20.3132 C   0  0  0  0  0  0  0  0  0  0  0  0
  -21.3122   31.3963  -19.2243 C   0  0  0  0  0  0  0  0  0  0  0  0
  -22.1995   32.1357  -18.4957 C   0  0  0  0  0  0  0  0  0  0  0  0
  -22.3867   33.4451  -18.9307 C   0  0  0  0  0  0  0  0  0  0  0  0
  -21.6889   33.9041  -20.0350 C   0  0  0  0  0  0  0  0  0  0  0  0
  -21.6332   35.4558  -20.8960 S   0  0  0  0  0  0  0  0  0  0  0  0
  -18.5003   42.0109  -21.6289 S   0  0  0  0  0  0  0  0  0  0  0  0
  -17.6109   43.4676  -21.1801 C   0  0  0  0  0  0  0  0  0  0  0  0
  -17.9698   44.8095  -20.9937 C   0  0  0  0  0  0  0  0  0  0  0  0
  1  2  1  0
  2  3  2  0
  3  4  1  0
  4  5  2  0
  5  6  1  0
  6  7  2  0
  7  8  1  0
  8  9  1  0
  9 10  2  0
  9 11  1  0
 11 12  1  0
 12 13  1  0
 13 14  1  0
 14 15  2  0
 15 16  1  0
 16 17  2  0
 17 18  1  0
 18 19  2  0
 19 20  1  0
 20 21  2  0
 21 22  1  0
  7 23  1  0
 23 24  1  0
 24 25  2  0
 25  2  1  0
 24  5  1  0
 22 14  1  0
 21 16  1  0
M  END
$$$$
