
     RDKit          3D

 28 31  0  0  0  0  0  0  0  0999 V2000
  -14.4494   47.1260  -21.4659 C   0  0  0  0  0  0  0  0  0  0  0  0
  -15.8393   46.9315  -21.4849 O   0  0  0  0  0  0  0  0  0  0  0  0
  -16.3375   45.6844  -21.1271 C   0  0  0  0  0  0  0  0  0  0  0  0
  -17.2466   45.0307  -21.9473 C   0  0  0  0  0  0  0  0  0  0  0  0
  -17.7495   43.7923  -21.6048 C   0  0  0  0  0  0  0  0  0  0  0  0
  -17.3756   43.1558  -20.4453 C   0  0  0  0  0  0  0  0  0  0  0  0
  -17.8602   41.8850  -20.0450 N   0  0  0  0  0  0  0  0  0  0  0  0
  -18.9516   41.2345  -20.6737 C   0  0  0  0  0  0  0  0  0  0  0  0
  -19.3855   41.6726  -21.7698 O   0  0  0  0  0  0  0  0  0  0  0  0
  -19.6036   40.0257  -20.0531 C   0  0  0  0  0  0  0  0  0  0  0  0
  -19.5387   38.9153  -20.9725 N   0  0  0  0  0  0  0  0  0  0  0  0
  -20.5770   38.2247  -21.6427 C   0  0  0  0  0  0  0  0  0  0  0  0
  -21.9503   38.5014  -21.5373 C   0  0  0  0  0  0  0  0  0  0  0  0
  -22.8736   37.7555  -22.2431 C   0  0  0  0  0  0  0  0  0  0  0  0
  -22.4679   36.7287  -23.0619 C   0  0  0  0  0  0  0  0  0  0  0  0
  -21.1033   36.4383  -23.1795 C   0  0  0  0  0  0  0  0  0  0  0  0
  -20.6497   35.4300  -23.9785 C   0  0  0  0  0  0  0  0  0  0  0  0
  -19.3055   35.1597  -24.0812 C   0  0  0  0  0  0  0  0  0  0  0  0
  -18.4392   35.9416  -23.3506 C   0  0  0  0  0  0  0  0  0  0  0  0
  -18.8679   36.9604  -22.5406 C   0  0  0  0  0  0  0  0  0  0  0  0
  -20.2068   37.2206  -22.4458 C   0  0  0  0  0  0  0  0  0  0  0  0
  -18.0914   38.1259  -21.4984 S   0  0  0  0  0  6  0  0  0  0  0  0
  -17.2054   39.0582  -22.2667 O   0  0  0  0  0  0  0  0  0  0  0  0
  -17.3973   37.4909  -20.3463 O   0  0  0  0  0  0  0  0  0  0  0  0
  -16.4737   43.8024  -19.6298 C   0  0  0  0  0  0  0  0  0  0  0  0
  -16.0736   43.1885  -18.4501 O   0  0  0  0  0  0  0  0  0  0  0  0
  -15.0274   42.2320  -18.4621 C   0  0  0  0  0  0  0  0  0  0  0  0
  -15.9657   45.0421  -19.9656 C   0  0  0  0  0  0  0  0  0  0  0  0
  1  2  1  0
  2  3  1  0
  3  4  2  0
  4  5  1  0
  5  6  2  0
  6  7  1  0
  7  8  1  0
  8  9  2  0
  8 10  1  0
 10 11  1  0
 11 12  1  0
 12 13  2  0
 13 14  1  0
 14 15  2  0
 15 16  1  0
 16 17  2  0
 17 18  1  0
 18 19  2  0
 19 20  1  0
 20 21  2  0
 20 22  1  0
 22 23  2  0
 22 24  2  0
  6 25  1  0
 25 26  1  0
 26 27  1  0
 25 28  2  0
 28  3  1  0
 22 11  1  0
 21 12  1  0
 21 16  1  0
M  END
$$$$
