
     RDKit          3D

 30 33  0  0  0  0  0  0  0  0999 V2000
  -21.8643   32.5917  -19.6738 C   0  0  0  0  0  0  0  0  0  0  0  0
  -20.8754   33.6123  -19.5405 O   0  0  0  0  0  0  0  0  0  0  0  0
  -20.7830   34.6096  -20.5024 C   0  0  0  0  0  0  0  0  0  0  0  0
  -19.5866   34.8412  -21.1489 C   0  0  0  0  0  0  0  0  0  0  0  0
  -19.5136   35.8524  -22.1163 C   0  0  0  0  0  0  0  0  0  0  0  0
  -20.6166   36.6161  -22.4300 C   0  0  0  0  0  0  0  0  0  0  0  0
  -20.5066   37.8544  -23.6241 S   0  0  0  0  0  6  0  0  0  0  0  0
  -19.2589   37.7257  -24.4496 O   0  0  0  0  0  0  0  0  0  0  0  0
  -21.6845   37.6806  -24.5717 O   0  0  0  0  0  0  0  0  0  0  0  0
  -20.5758   39.4390  -23.0020 N   0  0  0  0  0  0  0  0  0  0  0  0
  -20.5322   39.5044  -21.5672 C   0  0  0  0  0  0  0  0  0  0  0  0
  -20.1072   40.9397  -21.2219 C   0  0  0  0  0  0  0  0  0  0  0  0
  -18.6804   40.9863  -21.3622 N   0  0  0  0  0  0  0  0  0  0  0  0
  -17.9474   40.6552  -19.8631 S   0  0  0  0  0  6  0  0  0  0  0  0
  -19.0106   40.4828  -18.7870 O   0  0  0  0  0  0  0  0  0  0  0  0
  -17.1692   39.3700  -19.8705 O   0  0  0  0  0  0  0  0  0  0  0  0
  -16.9602   42.0029  -19.3921 C   0  0  0  0  0  0  0  0  0  0  0  0
  -16.1185   41.9057  -18.3228 C   0  0  0  0  0  0  0  0  0  0  0  0
  -15.3260   42.9873  -17.9339 C   0  0  0  0  0  0  0  0  0  0  0  0
  -15.4236   44.1483  -18.6635 C   0  0  0  0  0  0  0  0  0  0  0  0
  -16.2599   44.2842  -19.7469 C   0  0  0  0  0  0  0  0  0  0  0  0
  -17.0312   43.2034  -20.1105 C   0  0  0  0  0  0  0  0  0  0  0  0
  -16.3307   45.4804  -20.4626 O   0  0  0  0  0  0  0  0  0  0  0  0
  -15.2306   46.3908  -20.3372 C   0  0  0  0  0  0  0  0  0  0  0  0
  -14.8687   46.5167  -18.8622 C   0  0  0  0  0  0  0  0  0  0  0  0
  -14.6465   45.2407  -18.2990 O   0  0  0  0  0  0  0  0  0  0  0  0
  -18.2843   40.1098  -22.4187 C   0  0  0  0  0  0  0  0  0  0  0  0
  -19.3827   40.1423  -23.4875 C   0  0  0  0  0  0  0  0  0  0  0  0
  -21.8143   36.3916  -21.7897 C   0  0  0  0  0  0  0  0  0  0  0  0
  -21.8792   35.3812  -20.8259 C   0  0  0  0  0  0  0  0  0  0  0  0
  1  2  1  0
  2  3  1  0
  3  4  2  0
  4  5  1  0
  5  6  2  0
  6  7  1  0
  7  8  2  0
  7  9  2  0
  7 10  1  0
 10 11  1  0
 11 12  1  0
 12 13  1  0
 13 14  1  0
 14 15  2  0
 14 16  2  0
 14 17  1  0
 17 18  2  0
 18 19  1  0
 19 20  2  0
 20 21  1  0
 21 22  2  0
 21 23  1  0
 23 24  1  0
 24 25  1  0
 25 26  1  0
 13 27  1  0
 27 28  1  0
  6 29  1  0
 29 30  2  0
 30  3  1  0
 28 10  1  0
 22 17  1  0
 26 20  1  0
M  END
$$$$
