
     RDKit          3D

 18 19  0  0  0  0  0  0  0  0999 V2000
  -44.2259    4.8193  -34.0052 O   0  0  0  0  0  0  0  0  0  0  0  0
  -43.4267    4.7283  -33.0431 C   0  0  0  0  0  0  0  0  0  0  0  0
  -42.5898    5.8348  -32.7810 N   0  0  0  0  0  0  0  0  0  0  0  0
  -43.1534    7.0503  -32.4698 N   0  0  0  0  0  0  0  0  0  0  0  0
  -42.5943    8.1876  -32.5505 C   0  0  0  0  0  0  0  0  0  0  0  0
  -42.8315    9.0484  -33.6954 C   0  0  0  0  0  0  0  0  0  0  0  0
  -42.3622   10.3390  -33.6625 C   0  0  0  0  0  0  0  0  0  0  0  0
  -42.5546   11.2193  -34.7269 C   0  0  0  0  0  0  0  0  0  0  0  0
  -43.2347   10.7815  -35.8427 C   0  0  0  0  0  0  0  0  0  0  0  0
  -43.4533   11.9205  -37.1554 Cl  0  0  0  0  0  0  0  0  0  0  0  0
  -43.7178    9.4907  -35.9047 C   0  0  0  0  0  0  0  0  0  0  0  0
  -43.5093    8.6304  -34.8211 C   0  0  0  0  0  0  0  0  0  0  0  0
  -43.4001    3.5014  -32.2521 C   0  0  0  0  0  0  0  0  0  0  0  0
  -43.2766    2.2655  -32.8508 C   0  0  0  0  0  0  0  0  0  0  0  0
  -43.2493    1.0975  -32.1275 C   0  0  0  0  0  0  0  0  0  0  0  0
  -43.3470    1.1257  -30.7450 C   0  0  0  0  0  0  0  0  0  0  0  0
  -43.4707    2.3498  -30.1328 C   0  0  0  0  0  0  0  0  0  0  0  0
  -43.4969    3.5227  -30.8771 C   0  0  0  0  0  0  0  0  0  0  0  0
  1  2  2  0
  2  3  1  0
  3  4  1  0
  4  5  2  0
  5  6  1  0
  6  7  2  0
  7  8  1  0
  8  9  2  0
  9 10  1  0
  9 11  1  0
 11 12  2  0
  2 13  1  0
 13 14  2  0
 14 15  1  0
 15 16  2  0
 16 17  1  0
 17 18  2  0
 12  6  1  0
 18 13  1  0
M  END
$$$$
