
     RDKit          3D

 23 26  0  0  0  0  0  0  0  0999 V2000
  -14.7010   46.5659  -18.5178 C   0  0  0  0  0  0  0  0  0  0  0  0
  -15.5842   45.7366  -19.3043 N   0  0  0  0  0  0  0  0  0  0  0  0
  -16.2920   46.2248  -20.4328 N   0  0  0  0  0  0  0  0  0  0  0  0
  -17.0883   45.4564  -21.1328 C   0  0  0  0  0  0  0  0  0  0  0  0
  -17.7930   45.9519  -22.2606 N   0  0  0  0  0  0  0  0  0  0  0  0
  -17.2832   44.0461  -20.7759 C   0  0  0  0  0  0  0  0  0  0  0  0
  -17.9992   42.9638  -21.2362 C   0  0  0  0  0  0  0  0  0  0  0  0
  -17.7326   41.8923  -20.4274 N   0  0  0  0  0  0  0  0  0  0  0  0
  -18.2623   40.5869  -20.5500 C   0  0  2  0  0  0  0  0  0  0  0  0
  -18.4374   40.1801  -21.8849 O   0  0  0  0  0  0  0  0  0  0  0  0
  -19.0356   38.9342  -21.7056 C   0  0  2  0  0  0  0  0  0  0  0  0
  -19.7317   38.4603  -22.9618 C   0  0  0  0  0  0  0  0  0  0  0  0
  -18.9693   38.7485  -24.0838 O   0  0  0  0  0  0  0  0  0  0  0  0
  -20.0086   39.0581  -20.5754 C   0  0  1  0  0  0  0  0  0  0  0  0
  -19.5978   38.1718  -19.5623 O   0  0  0  0  0  0  0  0  0  0  0  0
  -19.6831   40.4589  -20.0447 C   0  0  1  0  0  0  0  0  0  0  0  0
  -19.7798   40.5291  -18.6778 O   0  0  0  0  0  0  0  0  0  0  0  0
  -16.8717   42.2991  -19.4874 C   0  0  0  0  0  0  0  0  0  0  0  0
  -16.2331   41.7377  -18.4169 N   0  0  0  0  0  0  0  0  0  0  0  0
  -15.3923   42.4686  -17.6429 C   0  0  0  0  0  0  0  0  0  0  0  0
  -15.1340   43.7881  -17.8784 N   0  0  0  0  0  0  0  0  0  0  0  0
  -15.7426   44.3769  -18.9219 C   0  0  0  0  0  0  0  0  0  0  0  0
  -16.5742   43.6280  -19.6761 C   0  0  0  0  0  0  0  0  0  0  0  0
  1  2  1  0
  2  3  1  0
  3  4  2  0
  4  5  1  0
  4  6  1  0
  6  7  2  0
  7  8  1  0
  9  8  1  6
  9 10  1  0
 10 11  1  0
 11 12  1  6
 12 13  1  0
 11 14  1  0
 14 15  1  1
 14 16  1  0
 16 17  1  1
  8 18  1  0
 18 19  1  0
 19 20  2  0
 20 21  1  0
 21 22  2  0
 22 23  1  0
 22  2  1  0
 23  6  1  0
 16  9  1  0
 23 18  2  0
M  END
$$$$
