
     RDKit          3D

 28 31  0  0  0  0  0  0  0  0999 V2000
  -23.7174   21.9500  -36.2212 C   0  0  0  0  0  0  0  0  0  0  0  0
  -22.8347   20.8135  -35.8221 C   0  0  0  0  0  0  0  0  0  0  0  0
  -22.7376   19.7128  -36.7958 C   0  0  0  0  0  0  0  0  0  0  0  0
  -23.7771   19.5910  -37.7337 C   0  0  0  0  0  0  0  0  0  0  0  0
  -23.6812   18.5887  -38.6201 N   0  0  0  0  0  0  0  0  0  0  0  0
  -22.6415   17.7343  -38.6194 C   0  0  0  0  0  0  0  0  0  0  0  0
  -21.6476   17.8410  -37.7319 N   0  0  0  0  0  0  0  0  0  0  0  0
  -21.6813   18.8519  -36.7880 C   0  0  0  0  0  0  0  0  0  0  0  0
  -20.6405   18.9572  -35.8575 N   0  0  0  0  0  0  0  0  0  0  0  0
  -20.2753   20.1913  -35.2519 C   0  0  0  0  0  0  0  0  0  0  0  0
  -18.7769   20.3772  -35.5575 C   0  0  0  0  0  0  0  0  0  0  0  0
  -17.9734   19.2678  -35.2493 N   0  0  0  0  0  0  0  0  0  0  0  0
  -16.7180   19.5383  -34.6280 C   0  0  0  0  0  0  0  0  0  0  0  0
  -16.1255   18.2085  -34.2509 C   0  0  0  0  0  0  0  0  0  0  0  0
  -15.3997   17.4088  -35.0470 N   0  0  0  0  0  0  0  0  0  0  0  0
  -15.0330   16.2990  -34.3836 C   0  0  0  0  0  0  0  0  0  0  0  0
  -14.3055   15.1718  -34.6912 C   0  0  0  0  0  0  0  0  0  0  0  0
  -14.0952   14.1760  -33.7702 C   0  0  0  0  0  0  0  0  0  0  0  0
  -14.6133   14.2646  -32.4743 C   0  0  0  0  0  0  0  0  0  0  0  0
  -14.3811   13.1773  -31.4764 C   0  0  0  0  0  0  0  0  0  0  0  0
  -14.8496   13.5561  -30.2335 F   0  0  0  0  0  0  0  0  0  0  0  0
  -14.9832   12.0356  -31.9487 F   0  0  0  0  0  0  0  0  0  0  0  0
  -13.0064   13.0265  -31.3431 F   0  0  0  0  0  0  0  0  0  0  0  0
  -15.3371   15.3920  -32.1771 C   0  0  0  0  0  0  0  0  0  0  0  0
  -15.5502   16.3938  -33.0992 C   0  0  0  0  0  0  0  0  0  0  0  0
  -16.2090   17.5788  -33.0696 N   0  0  0  0  0  0  0  0  0  0  0  0
  -18.6184   18.0816  -34.8114 C   0  0  0  0  0  0  0  0  0  0  0  0
  -19.9087   17.7743  -35.4900 C   0  0  0  0  0  0  0  0  0  0  0  0
  1  2  1  0
  2  3  1  0
  3  4  2  0
  4  5  1  0
  5  6  2  0
  6  7  1  0
  7  8  2  0
  8  9  1  0
  9 10  1  0
 10 11  1  0
 11 12  1  0
 12 13  1  0
 13 14  1  0
 14 15  2  0
 15 16  1  0
 16 17  2  0
 17 18  1  0
 18 19  2  0
 19 20  1  0
 20 21  1  0
 20 22  1  0
 20 23  1  0
 19 24  1  0
 24 25  2  0
 25 26  1  0
 12 27  1  0
 27 28  1  0
  8  3  1  0
 28  9  1  0
 26 14  1  0
 25 16  1  0
M  END
$$$$
