
     RDKit          3D

 26 28  0  0  0  0  0  0  0  0999 V2000
  -11.5207    9.8105  -27.7814 C   0  0  0  0  0  0  0  0  0  0  0  0
  -12.1760   10.7738  -26.8166 C   0  0  0  0  0  0  0  0  0  0  0  0
  -13.1049    9.9322  -25.9338 C   0  0  0  0  0  0  0  0  0  0  0  0
  -11.0918   11.3864  -25.9657 C   0  0  0  0  0  0  0  0  0  0  0  0
  -12.9805   11.7904  -27.5213 C   0  0  0  0  0  0  0  0  0  0  0  0
  -13.5367   12.8353  -26.8314 C   0  0  0  0  0  0  0  0  0  0  0  0
  -14.2736   13.7612  -27.4944 C   0  0  0  0  0  0  0  0  0  0  0  0
  -14.5200   13.7339  -28.8739 C   0  0  0  0  0  0  0  0  0  0  0  0
  -15.2979   14.7491  -29.4510 N   0  0  0  0  0  0  0  0  0  0  0  0
  -16.6207   14.5653  -29.9184 C   0  0  0  0  0  0  0  0  0  0  0  0
  -17.3309   13.6220  -29.5813 O   0  0  0  0  0  0  0  0  0  0  0  0
  -17.1247   15.5545  -30.8334 N   0  0  0  0  0  0  0  0  0  0  0  0
  -16.9254   16.9646  -30.5492 C   0  0  0  0  0  0  0  0  0  0  0  0
  -18.2795   17.5844  -30.3739 C   0  0  0  0  0  0  0  0  0  0  0  0
  -19.2232   16.9327  -31.1912 N   0  0  0  0  0  0  0  0  0  0  0  0
  -20.5787   16.6908  -30.9748 C   0  0  0  0  0  0  0  0  0  0  0  0
  -21.2552   15.8332  -31.7804 N   0  0  0  0  0  0  0  0  0  0  0  0
  -22.5610   15.5561  -31.6260 C   0  0  0  0  0  0  0  0  0  0  0  0
  -23.2876   16.1441  -30.6194 C   0  0  0  0  0  0  0  0  0  0  0  0
  -22.6429   17.0235  -29.7746 C   0  0  0  0  0  0  0  0  0  0  0  0
  -21.2962   17.2799  -29.9702 C   0  0  0  0  0  0  0  0  0  0  0  0
  -20.4212   18.3823  -28.9377 Cl  0  0  0  0  0  0  0  0  0  0  0  0
  -18.6833   16.4407  -32.4575 C   0  0  0  0  0  0  0  0  0  0  0  0
  -17.8342   15.2261  -32.0447 C   0  0  0  0  0  0  0  0  0  0  0  0
  -13.9593   12.6890  -29.5407 C   0  0  0  0  0  0  0  0  0  0  0  0
  -13.1924   11.7166  -28.8809 C   0  0  0  0  0  0  0  0  0  0  0  0
  1  2  1  0
  2  3  1  0
  2  4  1  0
  2  5  1  0
  5  6  2  0
  6  7  1  0
  7  8  2  0
  8  9  1  0
  9 10  1  0
 10 11  2  0
 10 12  1  0
 12 13  1  0
 13 14  1  0
 14 15  1  0
 15 16  1  0
 16 17  2  0
 17 18  1  0
 18 19  2  0
 19 20  1  0
 20 21  2  0
 21 22  1  0
 15 23  1  0
 23 24  1  0
  8 25  1  0
 25 26  2  0
 26  5  1  0
 24 12  1  0
 21 16  1  0
M  END
$$$$
