
     RDKit          3D

 31 34  0  0  0  0  0  0  0  0999 V2000
  -19.2038   19.3650  -43.3702 O   0  0  0  0  0  0  0  0  0  0  0  0
  -18.3926   20.2738  -43.0853 C   0  0  0  0  0  0  0  0  0  0  0  0
  -18.3655   21.3786  -43.9226 O   0  0  0  0  0  0  0  0  0  0  0  0
  -17.5260   20.1312  -41.9033 C   0  0  2  0  0  0  0  0  0  0  0  0
  -18.0929   20.7821  -40.6876 C   0  0  0  0  0  0  0  0  0  0  0  0
  -19.5375   21.0275  -40.8496 C   0  0  0  0  0  0  0  0  0  0  0  0
  -20.3904   19.9311  -40.6772 C   0  0  0  0  0  0  0  0  0  0  0  0
  -21.7469   20.1246  -40.8214 C   0  0  0  0  0  0  0  0  0  0  0  0
  -22.1880   21.3776  -41.1253 C   0  0  0  0  0  0  0  0  0  0  0  0
  -21.3592   22.4606  -41.2967 C   0  0  0  0  0  0  0  0  0  0  0  0
  -21.8445   23.7537  -41.6126 N   0  0  0  0  0  0  0  0  0  0  0  0
  -21.3451   24.5201  -42.6826 C   0  0  0  0  0  0  0  0  0  0  0  0
  -21.4471   25.6229  -43.2584 N   0  0  0  0  0  0  0  0  0  0  0  0
  -20.8230   26.0585  -44.2662 C   0  0  0  0  0  0  0  0  0  0  0  0
  -19.8577   25.2408  -44.8843 C   0  0  0  0  0  0  0  0  0  0  0  0
  -20.0142   23.7749  -43.7759 S   0  0  0  0  0  0  0  0  0  0  0  0
  -20.0311   22.2189  -41.1442 N   0  0  0  0  0  0  0  0  0  0  0  0
  -16.1087   20.5959  -42.1155 C   0  0  0  0  0  0  0  0  0  0  0  0
  -15.2112   19.7825  -41.2034 C   0  0  0  0  0  0  0  0  0  0  0  0
  -14.9550   18.4527  -41.8915 C   0  0  1  0  0  0  0  0  0  0  0  0
  -14.5442   17.4639  -41.0306 O   0  0  0  0  0  0  0  0  0  0  0  0
  -13.3586   17.4668  -40.3487 C   0  0  0  0  0  0  0  0  0  0  0  0
  -13.2030   17.4739  -38.9855 C   0  0  0  0  0  0  0  0  0  0  0  0
  -11.9461   17.4765  -38.3697 C   0  0  0  0  0  0  0  0  0  0  0  0
  -10.8006   17.4719  -39.1154 C   0  0  0  0  0  0  0  0  0  0  0  0
  -10.9365   17.4648  -40.4790 C   0  0  0  0  0  0  0  0  0  0  0  0
   -9.4707   17.4589  -41.4385 Cl  0  0  0  0  0  0  0  0  0  0  0  0
  -12.1620   17.4622  -41.0915 C   0  0  0  0  0  0  0  0  0  0  0  0
  -12.2812   17.4551  -42.4514 F   0  0  0  0  0  0  0  0  0  0  0  0
  -16.2998   18.0287  -42.4699 C   0  0  0  0  0  0  0  0  0  0  0  0
  -17.4138   18.6157  -41.6444 C   0  0  0  0  0  0  0  0  0  0  0  0
  1  2  2  0
  2  3  1  0
  2  4  1  0
  4  5  1  1
  5  6  1  0
  6  7  2  0
  7  8  1  0
  8  9  2  0
  9 10  1  0
 10 11  1  0
 11 12  1  0
 12 13  2  0
 13 14  1  0
 14 15  2  0
 15 16  1  0
 10 17  2  0
  4 18  1  0
 18 19  1  0
 19 20  1  0
 20 21  1  1
 21 22  1  0
 22 23  2  0
 23 24  1  0
 24 25  2  0
 25 26  1  0
 26 27  1  0
 26 28  2  0
 28 29  1  0
 20 30  1  0
 30 31  1  0
 31  4  1  0
 17  6  1  0
 28 22  1  0
 16 12  1  0
M  END
$$$$
