
     RDKit          3D

 33 36  0  0  0  0  0  0  0  0999 V2000
  -25.6665   26.7158  -34.2301 C   0  0  0  0  0  0  0  0  0  0  0  0
  -26.2287   25.3833  -33.7691 C   0  0  0  0  0  0  0  0  0  0  0  0
  -25.9049   25.2474  -32.2960 C   0  0  0  0  0  0  0  0  0  0  0  0
  -27.7133   25.4206  -33.9807 C   0  0  0  0  0  0  0  0  0  0  0  0
  -28.1433   24.8113  -35.2427 C   0  0  0  0  0  0  0  0  0  0  0  0
  -29.3784   24.6236  -35.4245 O   0  0  0  0  0  0  0  0  0  0  0  0
  -27.2167   24.4204  -36.2780 C   0  0  0  0  0  0  0  0  0  0  0  0
  -27.3120   24.2355  -37.6622 C   0  0  0  0  0  0  0  0  0  0  0  0
  -28.5527   24.4334  -38.4295 C   0  0  0  0  0  0  0  0  0  0  0  0
  -28.8369   25.7476  -38.6953 F   0  0  0  0  0  0  0  0  0  0  0  0
  -28.4467   23.6940  -39.6031 F   0  0  0  0  0  0  0  0  0  0  0  0
  -29.5840   23.8523  -37.6959 F   0  0  0  0  0  0  0  0  0  0  0  0
  -26.0804   23.8669  -38.0403 N   0  0  0  0  0  0  0  0  0  0  0  0
  -25.2566   23.8141  -37.0102 N   0  0  0  0  0  0  0  0  0  0  0  0
  -23.8821   23.4506  -37.1147 C   0  0  0  0  0  0  0  0  0  0  0  0
  -23.0663   24.2814  -37.8217 C   0  0  0  0  0  0  0  0  0  0  0  0
  -21.7513   23.9491  -37.9341 C   0  0  0  0  0  0  0  0  0  0  0  0
  -21.2282   22.7747  -37.3383 C   0  0  0  0  0  0  0  0  0  0  0  0
  -19.8678   22.4744  -37.6843 C   0  0  0  0  0  0  0  0  0  0  0  0
  -18.8169   22.8151  -36.7509 N   0  0  0  0  0  0  0  0  0  0  0  0
  -19.5025   21.9442  -38.7137 O   0  0  0  0  0  0  0  0  0  0  0  0
  -22.0069   21.9307  -36.6252 C   0  0  0  0  0  0  0  0  0  0  0  0
  -21.5881   20.8529  -35.8666 N   0  0  0  0  0  0  0  0  0  0  0  0
  -21.8570   20.2423  -34.6349 C   0  0  1  0  0  0  0  0  0  0  0  0
  -22.9907   19.2523  -34.7697 C   0  0  0  0  0  0  0  0  0  0  0  0
  -22.4757   17.9088  -35.2275 C   0  0  0  0  0  0  0  0  0  0  0  0
  -21.8447   17.1664  -34.0568 C   0  0  2  0  0  0  0  0  0  0  0  0
  -22.8688   16.7735  -33.2151 O   0  0  0  0  0  0  0  0  0  0  0  0
  -21.0246   18.2372  -33.3321 C   0  0  0  0  0  0  0  0  0  0  0  0
  -20.6255   19.3183  -34.2927 C   0  0  0  0  0  0  0  0  0  0  0  0
  -23.3765   22.3182  -36.5374 C   0  0  0  0  0  0  0  0  0  0  0  0
  -25.9169   24.1469  -35.9121 C   0  0  0  0  0  0  0  0  0  0  0  0
  -25.5431   24.2645  -34.5037 C   0  0  0  0  0  0  0  0  0  0  0  0
  1  2  1  0
  2  3  1  0
  2  4  1  0
  4  5  1  0
  5  6  2  0
  5  7  1  0
  7  8  1  0
  8  9  1  0
  9 10  1  0
  9 11  1  0
  9 12  1  0
  8 13  2  0
 13 14  1  0
 14 15  1  0
 15 16  2  0
 16 17  1  0
 17 18  2  0
 18 19  1  0
 19 20  1  0
 19 21  2  0
 18 22  1  0
 22 23  1  0
 24 23  1  6
 24 25  1  0
 25 26  1  0
 26 27  1  0
 27 28  1  1
 27 29  1  0
 29 30  1  0
 22 31  2  0
 14 32  1  0
 32 33  1  0
 33  2  1  0
 32  7  2  0
 31 15  1  0
 30 24  1  0
M  END
$$$$
