
     RDKit          3D

 15 15  0  0  0  0  0  0  0  0999 V2000
  -16.9796   36.2328  -21.7374 O   0  0  0  0  0  0  0  0  0  0  0  0
  -18.1415   37.0959  -21.2881 S   0  0  0  0  0  6  0  0  0  0  0  0
  -18.8494   36.4649  -20.1249 O   0  0  0  0  0  0  0  0  0  0  0  0
  -19.2100   37.2500  -22.5789 O   0  0  0  0  0  1  0  0  0  0  0  0
  -17.5941   38.6269  -20.8018 O   0  0  0  0  0  0  0  0  0  0  0  0
  -18.3315   39.7680  -21.1308 C   0  0  0  0  0  0  0  0  0  0  0  0
  -19.3341   40.3446  -20.3836 C   0  0  0  0  0  0  0  0  0  0  0  0
  -19.7568   41.4090  -21.0750 N   0  0  0  0  0  0  0  0  0  0  0  0
  -19.0672   41.5297  -22.2228 C   0  0  0  0  0  0  0  0  0  0  0  0
  -19.1477   42.4603  -23.2465 C   0  0  0  0  0  0  0  0  0  0  0  0
  -18.2893   42.3133  -24.3110 C   0  0  0  0  0  0  0  0  0  0  0  0
  -17.3712   41.2881  -24.3860 C   0  0  0  0  0  0  0  0  0  0  0  0
  -17.2953   40.3769  -23.3796 C   0  0  0  0  0  0  0  0  0  0  0  0
  -18.1467   40.4921  -22.2862 C   0  0  0  0  0  0  0  0  0  0  0  0
  -18.4626   40.2350  -22.2997 K   0  0  0  0  0 15  0  0  0  0  0  0
  1  2  2  0
  2  3  2  0
  2  4  1  0
  2  5  1  0
  5  6  1  0
  6  7  2  0
  7  8  1  0
  8  9  1  0
  9 10  2  0
 10 11  1  0
 11 12  2  0
 12 13  1  0
 13 14  2  0
 14  6  1  0
 14  9  1  0
M  CHG  2   4  -1  15   1
M  END
$$$$
