
     RDKit          3D

 30 34  0  0  0  0  0  0  0  0999 V2000
  -20.7668   34.0745  -22.0645 N   0  0  0  0  0  0  0  0  0  0  0  0
  -19.5671   34.6912  -21.6401 C   0  0  0  0  0  0  0  0  0  0  0  0
  -18.5897   34.0059  -21.2909 O   0  0  0  0  0  0  0  0  0  0  0  0
  -19.4738   36.1355  -21.6112 C   0  0  0  0  0  0  0  0  0  0  0  0
  -20.5678   36.9092  -21.8670 C   0  0  0  0  0  0  0  0  0  0  0  0
  -20.4887   38.2737  -21.8416 C   0  0  0  0  0  0  0  0  0  0  0  0
  -19.3063   38.9060  -21.5577 C   0  0  0  0  0  0  0  0  0  0  0  0
  -19.1693   40.3561  -21.5189 C   0  0  0  0  0  0  0  0  0  0  0  0
  -18.0366   40.9797  -21.1576 N   0  0  0  0  0  0  0  0  0  0  0  0
  -18.1976   42.3196  -21.2136 C   0  0  0  0  0  0  0  0  0  0  0  0
  -17.1517   43.2682  -20.8833 C   0  0  0  0  0  0  0  0  0  0  0  0
  -16.7660   44.2553  -21.7476 C   0  0  0  0  0  0  0  0  0  0  0  0
  -15.7684   45.1283  -21.3761 C   0  0  0  0  0  0  0  0  0  0  0  0
  -15.1130   45.0740  -20.1575 C   0  0  0  0  0  0  0  0  0  0  0  0
  -15.5126   44.0741  -19.2972 C   0  0  0  0  0  0  0  0  0  0  0  0
  -16.5111   43.1912  -19.6553 C   0  0  0  0  0  0  0  0  0  0  0  0
  -14.8658   44.0008  -18.0637 O   0  0  0  0  0  0  0  0  0  0  0  0
  -14.1281   45.0710  -17.5274 C   0  0  0  0  0  0  0  0  0  0  0  0
  -13.3557   45.8160  -18.5990 C   0  0  0  0  0  0  0  0  0  0  0  0
  -14.1104   45.9546  -19.7889 O   0  0  0  0  0  0  0  0  0  0  0  0
  -19.4827   42.5163  -21.6263 C   0  0  0  0  0  0  0  0  0  0  0  0
  -20.1272   43.7776  -21.8368 C   0  0  0  0  0  0  0  0  0  0  0  0
  -19.6201   44.9164  -21.2506 C   0  0  0  0  0  0  0  0  0  0  0  0
  -20.1857   46.1640  -21.4097 C   0  0  0  0  0  0  0  0  0  0  0  0
  -21.3121   46.2816  -22.1917 C   0  0  0  0  0  0  0  0  0  0  0  0
  -21.8240   45.1306  -22.7837 C   0  0  0  0  0  0  0  0  0  0  0  0
  -21.2408   43.9319  -22.6023 N   0  0  0  0  0  0  0  0  0  0  0  0
  -20.0484   41.3103  -21.8039 N   0  0  0  0  0  0  0  0  0  0  0  0
  -18.1890   38.1496  -21.2964 C   0  0  0  0  0  0  0  0  0  0  0  0
  -18.2745   36.7828  -21.3234 C   0  0  0  0  0  0  0  0  0  0  0  0
  1  2  1  0
  2  3  2  0
  2  4  1  0
  4  5  2  0
  5  6  1  0
  6  7  2  0
  7  8  1  0
  8  9  2  0
  9 10  1  0
 10 11  1  0
 11 12  2  0
 12 13  1  0
 13 14  2  0
 14 15  1  0
 15 16  2  0
 15 17  1  0
 17 18  1  0
 18 19  1  0
 19 20  1  0
 10 21  2  0
 21 22  1  0
 22 23  2  0
 23 24  1  0
 24 25  2  0
 25 26  1  0
 26 27  2  0
 21 28  1  0
  7 29  1  0
 29 30  2  0
 30  4  1  0
 28  8  1  0
 16 11  1  0
 27 22  1  0
 20 14  1  0
M  END
$$$$
