
     RDKit          3D

 15 15  0  0  0  0  0  0  0  0999 V2000
  -25.3597   16.9526  -22.0817 C   0  0  0  0  0  0  0  0  0  0  0  0
  -26.3169   15.9393  -21.5003 C   0  0  0  0  0  0  0  0  0  0  0  0
  -27.4589   15.7174  -22.1071 C   0  0  0  0  0  0  0  0  0  0  0  0
  -28.4601   14.8201  -21.5579 C   0  0  0  0  0  0  0  0  0  0  0  0
  -28.2604   13.9467  -20.5163 C   0  0  0  0  0  0  0  0  0  0  0  0
  -29.2681   13.1072  -20.0332 C   0  0  0  0  0  0  0  0  0  0  0  0
  -29.0089   12.2497  -18.9832 O   0  0  0  0  0  0  0  0  0  0  0  0
  -27.8727   11.4259  -19.0534 C   0  0  0  0  0  0  0  0  0  0  0  0
  -30.5221   13.1308  -20.6004 C   0  0  0  0  0  0  0  0  0  0  0  0
  -31.4739   12.2815  -20.0825 O   0  0  0  0  0  0  0  0  0  0  0  0
  -32.5735   11.8623  -20.8692 C   0  0  0  0  0  0  0  0  0  0  0  0
  -30.7574   13.9943  -21.6466 C   0  0  0  0  0  0  0  0  0  0  0  0
  -29.7483   14.8155  -22.1091 C   0  0  0  0  0  0  0  0  0  0  0  0
  -29.9782   15.6919  -23.1670 O   0  0  0  0  0  0  0  0  0  0  0  0
  -29.8258   15.3384  -24.5064 C   0  0  0  0  0  0  0  0  0  0  0  0
  1  2  1  0
  2  3  2  0
  3  4  1  0
  4  5  2  0
  5  6  1  0
  6  7  1  0
  7  8  1  0
  6  9  2  0
  9 10  1  0
 10 11  1  0
  9 12  1  0
 12 13  2  0
 13 14  1  0
 14 15  1  0
 13  4  1  0
M  END
$$$$
