
     RDKit          3D

 19 21  0  0  0  0  0  0  0  0999 V2000
  -19.0780   44.4864  -19.5622 N   0  0  0  0  0  0  0  0  0  0  0  0
  -18.4063   43.5600  -20.3840 C   0  0  0  0  0  0  0  0  0  0  0  0
  -17.4539   43.9376  -21.2526 N   0  0  0  0  0  0  0  0  0  0  0  0
  -16.7831   43.0993  -22.0582 C   0  0  0  0  0  0  0  0  0  0  0  0
  -17.0752   41.7919  -22.0009 N   0  0  0  0  0  0  0  0  0  0  0  0
  -18.0109   41.3125  -21.1666 C   0  0  0  0  0  0  0  0  0  0  0  0
  -18.6867   42.2004  -20.3475 C   0  0  0  0  0  0  0  0  0  0  0  0
  -19.5428   41.4867  -19.6324 N   0  0  0  0  0  0  0  0  0  0  0  0
  -19.4164   40.1828  -19.9854 C   0  0  0  0  0  0  0  0  0  0  0  0
  -18.4733   40.0543  -20.9336 N   0  0  0  0  0  0  0  0  0  0  0  0
  -18.0407   38.8266  -21.5737 C   0  0  0  0  0  0  0  0  0  0  0  0
  -18.6246   37.7243  -21.0251 O   0  0  0  0  0  0  0  0  0  0  0  0
  -19.1740   36.9329  -21.9849 C   0  0  2  0  0  0  0  0  0  0  0  0
  -18.2943   35.7193  -22.2456 C   0  0  0  0  0  0  0  0  0  0  0  0
  -19.0504   34.5361  -22.1669 O   0  0  0  0  0  0  0  0  0  0  0  0
  -19.2580   37.7185  -23.2643 C   0  0  1  0  0  0  0  0  0  0  0  0
  -20.5492   38.1746  -23.4190 O   0  0  0  0  0  0  0  0  0  0  0  0
  -18.2694   38.8368  -23.0526 C   0  0  1  0  0  0  0  0  0  0  0  0
  -18.8088   40.0595  -23.4371 O   0  0  0  0  0  0  0  0  0  0  0  0
  1  2  1  0
  2  3  2  0
  3  4  1  0
  4  5  2  0
  5  6  1  0
  6  7  2  0
  7  8  1  0
  8  9  2  0
  9 10  1  0
 10 11  1  0
 11 12  1  0
 12 13  1  0
 13 14  1  6
 14 15  1  0
 13 16  1  0
 16 17  1  1
 16 18  1  0
 18 19  1  1
  7  2  1  0
 18 11  1  0
 10  6  1  0
M  END
$$$$
