
     RDKit          3D

 35 37  0  0  0  0  0  0  0  0999 V2000
  -24.0568   21.2196  -33.2439 C   0  0  0  0  0  0  0  0  0  0  0  0
  -23.1509   20.2907  -33.9818 N   0  0  0  0  0  0  0  0  0  0  0  0
  -22.2423   19.5961  -33.1232 C   0  0  0  0  0  0  0  0  0  0  0  0
  -23.2722   20.2331  -35.3535 C   0  0  0  0  0  0  0  0  0  0  0  0
  -24.1731   21.0564  -35.8351 O   0  0  0  0  0  0  0  0  0  0  0  0
  -22.6212   19.4633  -36.3923 C   0  0  0  0  0  0  0  0  0  0  0  0
  -22.7403   20.2587  -37.7378 C   0  0  0  0  0  0  0  0  0  0  0  0
  -22.0670   21.5875  -37.6518 C   0  0  0  0  0  0  0  0  0  0  0  0
  -22.1698   22.3540  -38.8720 N   0  0  0  0  0  0  0  0  0  0  0  0
  -21.4057   21.7879  -39.9699 C   0  0  0  0  0  0  0  0  0  0  0  0
  -21.0092   22.9726  -40.8605 C   0  0  0  0  0  0  0  0  0  0  0  0
  -22.1727   23.9633  -40.8149 C   0  0  0  0  0  0  0  0  0  0  0  0
  -22.0107   24.6656  -39.5990 O   0  0  0  0  0  0  0  0  0  0  0  0
  -22.1477   24.9171  -41.9240 C   0  0  0  0  0  0  0  0  0  0  0  0
  -22.7445   24.7148  -43.1574 C   0  0  0  0  0  0  0  0  0  0  0  0
  -22.6665   25.6830  -44.1287 C   0  0  0  0  0  0  0  0  0  0  0  0
  -22.0079   26.8846  -43.9443 C   0  0  0  0  0  0  0  0  0  0  0  0
  -21.9071   28.1199  -45.1784 Cl  0  0  0  0  0  0  0  0  0  0  0  0
  -21.4022   27.1021  -42.7080 C   0  0  0  0  0  0  0  0  0  0  0  0
  -21.4823   26.1314  -41.7387 C   0  0  0  0  0  0  0  0  0  0  0  0
  -23.4512   23.1915  -40.6980 C   0  0  0  0  0  0  0  0  0  0  0  0
  -23.5338   22.6046  -39.2825 C   0  0  0  0  0  0  0  0  0  0  0  0
  -21.1741   19.2281  -36.2585 C   0  0  0  0  0  0  0  0  0  0  0  0
  -20.2906   20.0695  -35.6198 C   0  0  0  0  0  0  0  0  0  0  0  0
  -18.9666   19.7626  -35.5543 C   0  0  0  0  0  0  0  0  0  0  0  0
  -18.4596   18.6143  -36.1154 C   0  0  0  0  0  0  0  0  0  0  0  0
  -19.3213   17.7695  -36.7517 C   0  0  0  0  0  0  0  0  0  0  0  0
  -20.6650   18.0694  -36.8248 C   0  0  0  0  0  0  0  0  0  0  0  0
  -23.3210   18.1908  -36.6374 C   0  0  0  0  0  0  0  0  0  0  0  0
  -24.0624   17.9446  -37.8035 C   0  0  0  0  0  0  0  0  0  0  0  0
  -24.7006   16.7370  -37.9857 C   0  0  0  0  0  0  0  0  0  0  0  0
  -24.6596   15.7147  -37.0668 C   0  0  0  0  0  0  0  0  0  0  0  0
  -23.9327   15.9510  -35.9208 C   0  0  0  0  0  0  0  0  0  0  0  0
  -23.2757   17.1718  -35.7148 C   0  0  0  0  0  0  0  0  0  0  0  0
  -22.3374   21.6181  -38.5639 Cl  0  0  0  0  0  0  0  0  0  0  0  0
  1  2  1  0
  2  3  1  0
  2  4  1  0
  4  5  2  0
  4  6  1  0
  6  7  1  0
  7  8  1  0
  8  9  1  0
  9 10  1  0
 10 11  1  0
 11 12  1  0
 12 13  1  0
 12 14  1  0
 14 15  2  0
 15 16  1  0
 16 17  2  0
 17 18  1  0
 17 19  1  0
 19 20  2  0
 12 21  1  0
 21 22  1  0
  6 23  1  0
 23 24  2  0
 24 25  1  0
 25 26  2  0
 26 27  1  0
 27 28  2  0
  6 29  1  0
 29 30  2  0
 30 31  1  0
 31 32  2  0
 32 33  1  0
 33 34  2  0
 22  9  1  0
 28 23  1  0
 34 29  1  0
 20 14  1  0
M  END
$$$$
