
     RDKit          3D

 41 45  0  0  0  0  0  0  0  0999 V2000
  -23.6250   42.6211  -25.1414 C   0  0  0  0  0  0  0  0  0  0  0  0
  -24.0979   41.5673  -24.5353 C   0  0  0  0  0  0  0  0  0  0  0  0
  -23.2870   40.3771  -24.3242 C   0  0  0  0  0  0  0  0  0  0  0  0
  -22.1261   40.4462  -24.8631 O   0  0  0  0  0  0  0  0  0  0  0  0
  -23.7272   39.2611  -23.6001 N   0  0  0  0  0  0  0  0  0  0  0  0
  -22.9294   38.1029  -23.4368 C   0  0  0  0  0  0  0  0  0  0  0  0
  -21.7796   38.0151  -22.6866 C   0  0  0  0  0  0  0  0  0  0  0  0
  -21.0785   36.8407  -22.4662 C   0  0  0  0  0  0  0  0  0  0  0  0
  -19.9203   36.7531  -21.6672 N   0  0  0  0  0  0  0  0  0  0  0  0
  -18.9479   37.7353  -21.4150 C   0  0  0  0  0  0  0  0  0  0  0  0
  -17.7380   37.4379  -20.9788 N   0  0  0  0  0  0  0  0  0  0  0  0
  -16.7587   38.3010  -20.7141 C   0  0  0  0  0  0  0  0  0  0  0  0
  -17.0358   39.6371  -20.9158 C   0  0  0  0  0  0  0  0  0  0  0  0
  -18.3074   39.9661  -21.3763 C   0  0  0  0  0  0  0  0  0  0  0  0
  -18.5547   41.3641  -21.5697 N   0  0  0  0  0  0  0  0  0  0  0  0
  -17.7058   42.3312  -21.1912 C   0  0  0  0  0  0  0  0  0  0  0  0
  -18.3218   43.5335  -21.5720 C   0  0  0  0  0  0  0  0  0  0  0  0
  -17.6479   44.8354  -21.3325 C   0  0  0  0  0  0  0  0  0  0  0  0
  -16.4094   44.6104  -20.6476 N   0  0  0  0  0  0  0  0  0  0  0  0
  -15.7486   43.4072  -20.9736 C   0  0  0  0  0  0  0  0  0  0  0  0
  -15.6383   45.7369  -20.3026 C   0  0  0  0  0  0  0  0  0  0  0  0
  -19.5239   43.2449  -22.1663 C   0  0  0  0  0  0  0  0  0  0  0  0
  -20.4707   44.1782  -22.7158 C   0  0  0  0  0  0  0  0  0  0  0  0
  -21.5524   43.6095  -23.4115 C   0  0  0  0  0  0  0  0  0  0  0  0
  -22.5144   44.4221  -23.9584 C   0  0  0  0  0  0  0  0  0  0  0  0
  -22.4356   45.7851  -23.8355 C   0  0  0  0  0  0  0  0  0  0  0  0
  -21.3662   46.3512  -23.1462 C   0  0  0  0  0  0  0  0  0  0  0  0
  -20.3986   45.5429  -22.5953 C   0  0  0  0  0  0  0  0  0  0  0  0
  -19.6165   41.8809  -22.1374 N   0  0  0  0  0  0  0  0  0  0  0  0
  -19.2531   39.0412  -21.6249 N   0  0  0  0  0  0  0  0  0  0  0  0
  -21.6037   35.6794  -23.0649 C   0  0  0  0  0  0  0  0  0  0  0  0
  -20.8944   34.5284  -22.8325 O   0  0  0  0  0  0  0  0  0  0  0  0
  -21.4453   33.2589  -22.6867 C   0  0  0  0  0  0  0  0  0  0  0  0
  -22.7504   35.7742  -23.8140 C   0  0  0  0  0  0  0  0  0  0  0  0
  -23.4493   36.9501  -24.0315 C   0  0  0  0  0  0  0  0  0  0  0  0
  -24.6199   36.9836  -24.8346 N   0  0  0  0  0  0  0  0  0  0  0  0
  -24.7051   36.4432  -26.1752 C   0  0  0  0  0  0  0  0  0  0  0  0
  -26.0681   35.7172  -26.1889 C   0  0  0  0  0  0  0  0  0  0  0  0
  -27.1079   36.6240  -26.1107 O   0  0  0  0  0  0  0  0  0  0  0  0
  -26.7340   37.8255  -25.5309 C   0  0  0  0  0  0  0  0  0  0  0  0
  -25.8545   37.6110  -24.3302 C   0  0  0  0  0  0  0  0  0  0  0  0
  1  2  2  0
  2  3  1  0
  3  4  2  0
  3  5  1  0
  5  6  1  0
  6  7  2  0
  7  8  1  0
  8  9  1  0
  9 10  1  0
 10 11  2  0
 11 12  1  0
 12 13  2  0
 13 14  1  0
 14 15  1  0
 15 16  1  0
 16 17  2  0
 17 18  1  0
 18 19  1  0
 19 20  1  0
 19 21  1  0
 17 22  1  0
 22 23  1  0
 23 24  2  0
 24 25  1  0
 25 26  2  0
 26 27  1  0
 27 28  2  0
 22 29  2  0
 14 30  2  0
  8 31  2  0
 31 32  1  0
 32 33  1  0
 31 34  1  0
 34 35  2  0
 35 36  1  0
 36 37  1  0
 37 38  1  0
 38 39  1  0
 39 40  1  0
 40 41  1  0
 35  6  1  0
 41 36  1  0
 30 10  1  0
 29 15  1  0
 28 23  1  0
M  END
$$$$
