
     RDKit          3D

 16 17  0  0  0  0  0  0  0  0999 V2000
  -17.7665   34.8274  -21.6217 C   0  0  0  0  0  0  0  0  0  0  0  0
  -19.0318   35.5576  -21.3938 C   0  0  0  0  0  0  0  0  0  0  0  0
  -20.0512   34.8685  -21.0704 O   0  0  0  0  0  0  0  0  0  0  0  0
  -19.1047   37.0024  -21.5344 C   0  0  0  0  0  0  0  0  0  0  0  0
  -20.3375   37.6456  -21.3633 C   0  0  0  0  0  0  0  0  0  0  0  0
  -20.4696   39.0101  -21.4838 C   0  0  0  0  0  0  0  0  0  0  0  0
  -19.3724   39.7831  -21.7802 C   0  0  0  0  0  0  0  0  0  0  0  0
  -19.4977   41.1754  -21.9073 N   0  0  0  0  0  0  0  0  0  0  0  0
  -20.7866   41.7649  -22.2026 C   0  0  0  0  0  0  0  0  0  0  0  0
  -20.7358   43.1917  -22.6008 C   0  0  0  0  0  0  0  0  0  0  0  0
  -19.4630   43.7411  -22.7066 O   0  0  0  0  0  0  0  0  0  0  0  0
  -18.7744   43.4137  -21.5209 C   0  0  0  0  0  0  0  0  0  0  0  0
  -18.3011   41.9924  -21.7307 C   0  0  0  0  0  0  0  0  0  0  0  0
  -18.1587   39.1727  -21.9511 C   0  0  0  0  0  0  0  0  0  0  0  0
  -18.0151   37.7848  -21.8303 C   0  0  0  0  0  0  0  0  0  0  0  0
  -16.7715   37.1907  -22.0088 O   0  0  0  0  0  0  0  0  0  0  0  0
  1  2  1  0
  2  3  2  0
  2  4  1  0
  4  5  2  0
  5  6  1  0
  6  7  2  0
  7  8  1  0
  8  9  1  0
  9 10  1  0
 10 11  1  0
 11 12  1  0
 12 13  1  0
  7 14  1  0
 14 15  2  0
 15 16  1  0
 15  4  1  0
 13  8  1  0
M  END
$$$$
