
     RDKit          3D

 28 30  0  0  0  0  0  0  0  0999 V2000
  -28.2227   15.1148  -26.3677 C   0  0  0  0  0  0  0  0  0  0  0  0
  -26.8974   14.4876  -26.1261 C   0  0  0  0  0  0  0  0  0  0  0  0
  -26.0591   14.3189  -27.2450 C   0  0  0  0  0  0  0  0  0  0  0  0
  -24.7857   13.8031  -27.0702 C   0  0  0  0  0  0  0  0  0  0  0  0
  -23.8260   13.5956  -28.1159 C   0  0  0  0  0  0  0  0  0  0  0  0
  -23.9426   13.8374  -29.4078 C   0  0  0  0  0  0  0  0  0  0  0  0
  -22.8231   13.5047  -30.2598 C   0  0  0  0  0  0  0  0  0  0  0  0
  -21.8648   13.2405  -30.9741 N   0  0  0  0  0  0  0  0  0  0  0  0
  -24.4036   13.4728  -25.7609 C   0  0  0  0  0  0  0  0  0  0  0  0
  -25.2277   13.6395  -24.6855 C   0  0  0  0  0  0  0  0  0  0  0  0
  -24.7348   13.2541  -23.3388 C   0  0  0  0  0  0  0  0  0  0  0  0
  -26.5200   14.1665  -24.8579 C   0  0  0  0  0  0  0  0  0  0  0  0
  -27.2967   14.3571  -23.7360 N   0  0  0  0  0  0  0  0  0  0  0  0
  -27.3259   15.5151  -22.8982 C   0  0  0  0  0  0  0  0  0  0  0  0
  -26.4565   16.5863  -23.1145 C   0  0  0  0  0  0  0  0  0  0  0  0
  -26.5389   17.6526  -22.2681 C   0  0  0  0  0  0  0  0  0  0  0  0
  -27.4168   17.6909  -21.2534 N   0  0  0  0  0  0  0  0  0  0  0  0
  -28.2673   16.6687  -21.0268 C   0  0  0  0  0  0  0  0  0  0  0  0
  -29.1575   16.6436  -19.9434 N   0  0  0  0  0  0  0  0  0  0  0  0
  -29.9934   15.6226  -19.4914 C   0  0  0  0  0  0  0  0  0  0  0  0
  -30.4818   14.6869  -20.4082 C   0  0  0  0  0  0  0  0  0  0  0  0
  -31.2549   13.6065  -20.0448 C   0  0  0  0  0  0  0  0  0  0  0  0
  -31.5827   13.4059  -18.7131 C   0  0  0  0  0  0  0  0  0  0  0  0
  -32.3663   12.2862  -18.3217 C   0  0  0  0  0  0  0  0  0  0  0  0
  -33.0219   11.3272  -18.0029 N   0  0  0  0  0  0  0  0  0  0  0  0
  -31.1055   14.3240  -17.8208 C   0  0  0  0  0  0  0  0  0  0  0  0
  -30.3394   15.4002  -18.1780 C   0  0  0  0  0  0  0  0  0  0  0  0
  -28.1594   15.6299  -21.8845 N   0  0  0  0  0  0  0  0  0  0  0  0
  1  2  1  0
  2  3  2  0
  3  4  1  0
  4  5  1  0
  5  6  2  0
  6  7  1  0
  7  8  3  0
  4  9  2  0
  9 10  1  0
 10 11  1  0
 10 12  2  0
 12 13  1  0
 13 14  1  0
 14 15  2  0
 15 16  1  0
 16 17  2  0
 17 18  1  0
 18 19  1  0
 19 20  1  0
 20 21  2  0
 21 22  1  0
 22 23  2  0
 23 24  1  0
 24 25  3  0
 23 26  1  0
 26 27  2  0
 18 28  2  0
 12  2  1  0
 28 14  1  0
 27 20  1  0
M  END
$$$$
