
     RDKit          3D

 28 31  0  0  0  0  0  0  0  0999 V2000
  -23.4273   23.6672  -24.7388 C   0  0  0  0  0  0  0  0  0  0  0  0
  -23.5520   24.6404  -25.7401 O   0  0  0  0  0  0  0  0  0  0  0  0
  -23.8689   24.2260  -27.0492 C   0  0  0  0  0  0  0  0  0  0  0  0
  -23.6324   22.9303  -27.4545 C   0  0  0  0  0  0  0  0  0  0  0  0
  -23.9677   22.5993  -28.7463 C   0  0  0  0  0  0  0  0  0  0  0  0
  -23.7785   21.3725  -29.2246 N   0  0  0  0  0  0  0  0  0  0  0  0
  -24.1005   21.0247  -30.4815 C   0  0  0  0  0  0  0  0  0  0  0  0
  -24.6440   21.9599  -31.3091 N   0  0  0  0  0  0  0  0  0  0  0  0
  -24.8675   23.2210  -30.9046 C   0  0  0  0  0  0  0  0  0  0  0  0
  -25.4364   24.2280  -31.7236 N   0  0  0  0  0  0  0  0  0  0  0  0
  -25.8235   23.9978  -33.0849 C   0  0  0  0  0  0  0  0  0  0  0  0
  -26.7632   23.0454  -33.4137 C   0  0  0  0  0  0  0  0  0  0  0  0
  -27.1463   22.8015  -34.7203 C   0  0  0  0  0  0  0  0  0  0  0  0
  -26.5799   23.5287  -35.7651 C   0  0  0  0  0  0  0  0  0  0  0  0
  -26.9588   23.2900  -37.0763 O   0  0  0  0  0  0  0  0  0  0  0  0
  -27.6919   24.1051  -37.8715 C   0  0  0  0  0  0  0  0  0  0  0  0
  -28.8097   24.7361  -37.3843 C   0  0  0  0  0  0  0  0  0  0  0  0
  -29.5875   25.5762  -38.1575 C   0  0  0  0  0  0  0  0  0  0  0  0
  -29.2365   25.7908  -39.4554 C   0  0  0  0  0  0  0  0  0  0  0  0
  -28.1091   25.1695  -39.9893 C   0  0  0  0  0  0  0  0  0  0  0  0
  -27.3400   24.3224  -39.1795 C   0  0  0  0  0  0  0  0  0  0  0  0
  -25.6418   24.4784  -35.4278 C   0  0  0  0  0  0  0  0  0  0  0  0
  -25.2624   24.7179  -34.1156 C   0  0  0  0  0  0  0  0  0  0  0  0
  -24.5267   23.5477  -29.6096 C   0  0  0  0  0  0  0  0  0  0  0  0
  -24.7453   24.8260  -29.1661 C   0  0  0  0  0  0  0  0  0  0  0  0
  -24.4178   25.1878  -27.8703 C   0  0  0  0  0  0  0  0  0  0  0  0
  -24.6400   26.4830  -27.4218 O   0  0  0  0  0  0  0  0  0  0  0  0
  -24.3234   27.5841  -28.2583 C   0  0  0  0  0  0  0  0  0  0  0  0
  1  2  1  0
  2  3  1  0
  3  4  2  0
  4  5  1  0
  5  6  2  0
  6  7  1  0
  7  8  2  0
  8  9  1  0
  9 10  1  0
 10 11  1  0
 11 12  2  0
 12 13  1  0
 13 14  2  0
 14 15  1  0
 15 16  1  0
 16 17  2  0
 17 18  1  0
 18 19  2  0
 19 20  1  0
 20 21  2  0
 14 22  1  0
 22 23  2  0
  9 24  2  0
 24 25  1  0
 25 26  2  0
 26 27  1  0
 27 28  1  0
 26  3  1  0
 24  5  1  0
 23 11  1  0
 21 16  1  0
M  END
$$$$
