
     RDKit          3D

 41 44  0  0  0  0  0  0  0  0999 V2000
  -21.6262   39.3461  -22.9751 C   0  0  0  0  0  0  0  0  0  0  0  0
  -20.3613   38.5671  -23.2579 C   0  0  0  0  0  0  0  0  0  0  0  0
  -20.5948   37.1014  -23.0924 C   0  0  0  0  0  0  0  0  0  0  0  0
  -19.1971   39.0555  -22.4500 C   0  0  0  0  0  0  0  0  0  0  0  0
  -18.6870   40.4200  -22.9382 C   0  0  1  0  0  0  0  0  0  0  0  0
  -19.3997   41.4431  -22.0990 C   0  0  0  0  0  0  0  0  0  0  0  0
  -18.6686   41.8156  -20.9195 N   0  0  0  0  0  0  0  0  0  0  0  0
  -19.4854   42.0923  -19.4475 S   0  0  0  0  0  6  0  0  0  0  0  0
  -20.7474   41.2019  -19.4189 O   0  0  0  0  0  0  0  0  0  0  0  0
  -18.7547   41.6489  -18.2263 O   0  0  0  0  0  0  0  0  0  0  0  0
  -20.1129   43.7200  -19.3308 C   0  0  0  0  0  0  0  0  0  0  0  0
  -19.5095   44.6640  -18.5230 C   0  0  0  0  0  0  0  0  0  0  0  0
  -20.0090   45.9575  -18.4316 C   0  0  0  0  0  0  0  0  0  0  0  0
  -21.1304   46.3262  -19.1552 C   0  0  0  0  0  0  0  0  0  0  0  0
  -21.7409   45.3946  -19.9641 C   0  0  0  0  0  0  0  0  0  0  0  0
  -22.9375   45.8053  -20.7289 C   0  0  0  0  0  0  0  0  0  0  0  0
  -22.6086   46.1176  -22.0170 F   0  0  0  0  0  0  0  0  0  0  0  0
  -23.8698   44.7630  -20.8070 F   0  0  0  0  0  0  0  0  0  0  0  0
  -23.6044   46.8568  -20.1320 F   0  0  0  0  0  0  0  0  0  0  0  0
  -21.2229   44.1173  -20.0353 C   0  0  0  0  0  0  0  0  0  0  0  0
  -17.2645   41.9503  -21.0242 C   0  0  0  0  0  0  0  0  0  0  0  0
  -16.5568   42.7906  -20.1993 C   0  0  0  0  0  0  0  0  0  0  0  0
  -15.2031   42.9004  -20.3238 C   0  0  0  0  0  0  0  0  0  0  0  0
  -14.4900   43.8162  -19.4110 C   0  0  0  0  0  0  0  0  0  0  0  0
  -14.8856   45.1005  -19.1891 C   0  0  0  0  0  0  0  0  0  0  0  0
  -14.1726   45.8963  -18.3276 C   0  0  0  0  0  0  0  0  0  0  0  0
  -14.5393   47.1799  -18.0842 F   0  0  0  0  0  0  0  0  0  0  0  0
  -13.0356   45.4117  -17.6650 C   0  0  0  0  0  0  0  0  0  0  0  0
  -12.6168   44.1410  -17.8640 C   0  0  0  0  0  0  0  0  0  0  0  0
  -11.5149   43.5858  -17.2570 O   0  0  0  0  0  0  0  0  0  0  0  0
  -11.5682   42.5013  -16.3968 C   0  0  0  0  0  0  0  0  0  0  0  0
  -12.0176   41.3854  -17.1069 F   0  0  0  0  0  0  0  0  0  0  0  0
  -10.2732   42.1183  -15.9783 F   0  0  0  0  0  0  0  0  0  0  0  0
  -13.3786   43.3635  -18.7548 C   0  0  0  0  0  0  0  0  0  0  0  0
  -14.5130   42.1791  -21.2713 C   0  0  0  0  0  0  0  0  0  0  0  0
  -15.1903   41.3281  -22.1147 C   0  0  0  0  0  0  0  0  0  0  0  0
  -16.5560   41.2195  -21.9867 C   0  0  0  0  0  0  0  0  0  0  0  0
  -17.3067   40.3903  -22.7927 O   0  0  0  0  0  0  0  0  0  0  0  0
  -20.0199   38.8180  -24.6910 C   0  0  0  0  0  0  0  0  0  0  0  0
  -20.7736   38.5087  -25.6467 O   0  0  0  0  0  0  0  0  0  0  0  0
  -18.7951   39.4308  -24.9875 O   0  0  0  0  0  0  0  0  0  0  0  0
  1  2  1  0
  2  3  1  0
  2  4  1  0
  5  4  1  1
  5  6  1  0
  6  7  1  0
  7  8  1  0
  8  9  2  0
  8 10  2  0
  8 11  1  0
 11 12  2  0
 12 13  1  0
 13 14  2  0
 14 15  1  0
 15 16  1  0
 16 17  1  0
 16 18  1  0
 16 19  1  0
 15 20  2  0
  7 21  1  0
 21 22  2  0
 22 23  1  0
 23 24  1  0
 24 25  2  0
 25 26  1  0
 26 27  1  0
 26 28  2  0
 28 29  1  0
 29 30  1  0
 30 31  1  0
 31 32  1  0
 31 33  1  0
 29 34  2  0
 23 35  2  0
 35 36  1  0
 36 37  2  0
 37 38  1  0
  2 39  1  0
 39 40  2  0
 39 41  1  0
 38  5  1  0
 20 11  1  0
 37 21  1  0
 34 24  1  0
M  END
$$$$
