
     RDKit          3D

 23 25  0  0  0  0  0  0  0  0999 V2000
  -20.3517   30.7015  -26.6553 C   0  0  0  0  0  0  0  0  0  0  0  0
  -19.4196   31.8803  -26.4965 C   0  0  0  0  0  0  0  0  0  0  0  0
  -18.9572   31.9947  -25.1667 O   0  0  0  0  0  0  0  0  0  0  0  0
  -18.2637   33.2406  -25.1155 C   0  0  0  0  0  0  0  0  0  0  0  0
  -19.1799   34.3084  -24.6721 C   0  0  0  0  0  0  0  0  0  0  0  0
  -20.0222   34.8460  -25.5947 N   0  0  0  0  0  0  0  0  0  0  0  0
  -20.7271   35.8148  -25.0199 C   0  0  0  0  0  0  0  0  0  0  0  0
  -21.6859   36.6474  -25.5567 C   0  0  0  0  0  0  0  0  0  0  0  0
  -22.0458   36.4865  -26.9472 N   0  0  0  0  0  0  0  0  0  0  0  0
  -22.2557   37.5733  -24.7929 N   0  0  0  0  0  0  0  0  0  0  0  0
  -21.8749   37.6717  -23.5054 C   0  0  0  0  0  0  0  0  0  0  0  0
  -22.4657   38.6623  -22.7268 C   0  0  0  0  0  0  0  0  0  0  0  0
  -22.0889   38.8044  -21.4242 C   0  0  0  0  0  0  0  0  0  0  0  0
  -21.1369   37.9876  -20.8668 C   0  0  0  0  0  0  0  0  0  0  0  0
  -20.5226   36.9785  -21.6253 C   0  0  0  0  0  0  0  0  0  0  0  0
  -20.9105   36.8486  -22.9253 C   0  0  0  0  0  0  0  0  0  0  0  0
  -20.2993   35.8705  -23.6965 C   0  0  0  0  0  0  0  0  0  0  0  0
  -19.3514   34.9393  -23.4915 N   0  0  0  0  0  0  0  0  0  0  0  0
  -18.6440   34.6109  -22.2927 C   0  0  0  0  0  0  0  0  0  0  0  0
  -17.5935   35.5546  -21.8273 C   0  0  0  0  0  0  0  0  0  0  0  0
  -18.1333   36.8128  -21.1314 C   0  0  0  0  0  0  0  0  0  0  0  0
  -16.7228   34.9106  -20.7299 C   0  0  0  0  0  0  0  0  0  0  0  0
  -16.8050   35.9928  -22.8558 O   0  0  0  0  0  0  0  0  0  0  0  0
  1  2  1  0
  2  3  1  0
  3  4  1  0
  4  5  1  0
  5  6  2  0
  6  7  1  0
  7  8  2  0
  8  9  1  0
  8 10  1  0
 10 11  2  0
 11 12  1  0
 12 13  2  0
 13 14  1  0
 14 15  2  0
 15 16  1  0
 16 17  2  0
 17 18  1  0
 18 19  1  0
 19 20  1  0
 20 21  1  0
 20 22  1  0
 20 23  1  0
 18  5  1  0
 17  7  1  0
 16 11  1  0
M  END
$$$$
