
     RDKit          3D

 30 34  0  0  0  0  0  0  0  0999 V2000
  -20.5628   40.2446  -20.3646 C   0  0  0  0  0  0  0  0  0  0  0  0
  -20.1128   41.1798  -21.8140 S   0  0  0  0  0  0  0  0  0  0  0  0
  -18.7370   42.2720  -21.3331 C   0  0  0  0  0  0  0  0  0  0  0  0
  -18.2366   43.3331  -21.7332 N   0  0  0  0  0  0  0  0  0  0  0  0
  -17.2266   43.9310  -21.2034 C   0  0  0  0  0  0  0  0  0  0  0  0
  -16.5771   45.1257  -21.5647 C   0  0  0  0  0  0  0  0  0  0  0  0
  -15.5222   45.6292  -20.9066 C   0  0  0  0  0  0  0  0  0  0  0  0
  -14.9475   45.0079  -19.7722 C   0  0  0  0  0  0  0  0  0  0  0  0
  -13.9750   45.3555  -19.0645 N   0  0  0  0  0  0  0  0  0  0  0  0
  -13.5214   44.6709  -18.0009 C   0  0  0  0  0  0  0  0  0  0  0  0
  -12.4619   44.9281  -17.1247 N   0  0  0  0  0  0  0  0  0  0  0  0
  -12.2606   44.0290  -16.0559 C   0  0  0  0  0  0  0  0  0  0  0  0
  -12.9881   43.0247  -15.9279 O   0  0  0  0  0  0  0  0  0  0  0  0
  -11.1679   44.2643  -15.0540 C   0  0  0  0  0  0  0  0  0  0  0  0
  -11.5863   45.2667  -14.0389 C   0  0  0  0  0  0  0  0  0  0  0  0
  -11.0085   46.5154  -13.9614 C   0  0  0  0  0  0  0  0  0  0  0  0
  -11.3859   47.4296  -13.0313 C   0  0  0  0  0  0  0  0  0  0  0  0
  -12.3724   47.1196  -12.1305 C   0  0  0  0  0  0  0  0  0  0  0  0
  -12.9845   45.8877  -12.1609 C   0  0  0  0  0  0  0  0  0  0  0  0
  -12.5762   44.9718  -13.1256 C   0  0  0  0  0  0  0  0  0  0  0  0
  -10.6641   43.0203  -14.4513 C   0  0  0  0  0  0  0  0  0  0  0  0
   -9.3337   42.7011  -14.5103 C   0  0  0  0  0  0  0  0  0  0  0  0
   -8.8097   41.5555  -13.9659 C   0  0  0  0  0  0  0  0  0  0  0  0
   -9.6638   40.6877  -13.3310 C   0  0  0  0  0  0  0  0  0  0  0  0
  -11.0105   40.9988  -13.2647 C   0  0  0  0  0  0  0  0  0  0  0  0
  -11.5274   42.1462  -13.8113 C   0  0  0  0  0  0  0  0  0  0  0  0
  -14.6500   43.3117  -17.9941 S   0  0  0  0  0  0  0  0  0  0  0  0
  -15.6099   43.8357  -19.4438 C   0  0  0  0  0  0  0  0  0  0  0  0
  -16.6532   43.3167  -20.0765 C   0  0  0  0  0  0  0  0  0  0  0  0
  -17.6472   41.9072  -19.8865 S   0  0  0  0  0  0  0  0  0  0  0  0
  1  2  1  0
  2  3  1  0
  3  4  2  0
  4  5  1  0
  5  6  2  0
  6  7  1  0
  7  8  2  0
  8  9  1  0
  9 10  2  0
 10 11  1  0
 11 12  1  0
 12 13  2  0
 12 14  1  0
 14 15  1  0
 15 16  2  0
 16 17  1  0
 17 18  2  0
 18 19  1  0
 19 20  2  0
 14 21  1  0
 21 22  2  0
 22 23  1  0
 23 24  2  0
 24 25  1  0
 25 26  2  0
 10 27  1  0
 27 28  1  0
 28 29  2  0
 29 30  1  0
 30  3  1  0
 29  5  1  0
 28  8  1  0
 20 15  1  0
 26 21  1  0
M  END
$$$$
