
     RDKit          3D

 19 21  0  0  0  0  0  0  0  0999 V2000
  -20.7466   27.9585  -24.8781 O   0  0  0  0  0  0  0  0  0  0  0  0
  -21.4128   28.2902  -25.8964 C   0  0  0  0  0  0  0  0  0  0  0  0
  -20.8845   28.6561  -27.1642 N   0  0  0  0  0  0  0  0  0  0  0  0
  -21.9340   28.9630  -28.0559 C   0  0  0  0  0  0  0  0  0  0  0  0
  -21.7718   29.3417  -29.2335 O   0  0  0  0  0  0  0  0  0  0  0  0
  -23.1977   28.7471  -27.3221 C   0  0  0  0  0  0  0  0  0  0  0  0
  -24.0037   27.6302  -27.8596 C   0  0  0  0  0  0  0  0  0  0  0  0
  -24.9588   27.8077  -28.8166 C   0  0  0  0  0  0  0  0  0  0  0  0
  -25.7103   26.7326  -29.3072 C   0  0  0  0  0  0  0  0  0  0  0  0
  -25.4525   25.4654  -28.7858 C   0  0  0  0  0  0  0  0  0  0  0  0
  -24.4893   25.2788  -27.8188 C   0  0  0  0  0  0  0  0  0  0  0  0
  -23.7664   26.3700  -27.3590 C   0  0  0  0  0  0  0  0  0  0  0  0
  -24.0148   29.9951  -27.2591 C   0  0  0  0  0  0  0  0  0  0  0  0
  -23.6471   31.1655  -27.9071 C   0  0  0  0  0  0  0  0  0  0  0  0
  -24.3933   32.3082  -27.8501 C   0  0  0  0  0  0  0  0  0  0  0  0
  -25.5607   32.3019  -27.1196 C   0  0  0  0  0  0  0  0  0  0  0  0
  -25.9681   31.1647  -26.4585 C   0  0  0  0  0  0  0  0  0  0  0  0
  -25.1835   30.0076  -26.5343 C   0  0  0  0  0  0  0  0  0  0  0  0
  -22.8054   28.3658  -25.9866 N   0  0  0  0  0  0  0  0  0  0  0  0
  1  2  2  0
  2  3  1  0
  3  4  1  0
  4  5  2  0
  4  6  1  0
  6  7  1  0
  7  8  2  0
  8  9  1  0
  9 10  2  0
 10 11  1  0
 11 12  2  0
  6 13  1  0
 13 14  2  0
 14 15  1  0
 15 16  2  0
 16 17  1  0
 17 18  2  0
  6 19  1  0
 19  2  1  0
 12  7  1  0
 18 13  1  0
M  END
$$$$
