
     RDKit          3D

 23 26  0  0  0  0  0  0  0  0999 V2000
  -21.8144   40.6672  -23.6889 C   0  0  0  0  0  0  0  0  0  0  0  0
  -22.3542   39.3245  -23.3258 C   0  0  0  0  0  0  0  0  0  0  0  0
  -23.2051   39.4383  -22.0833 C   0  0  0  0  0  0  0  0  0  0  0  0
  -21.3113   38.3487  -23.0539 N   0  0  0  0  0  0  0  0  0  0  0  0
  -21.3328   37.0920  -23.3963 N   0  0  0  0  0  0  0  0  0  0  0  0
  -20.1863   36.4403  -22.9864 C   0  0  0  0  0  0  0  0  0  0  0  0
  -19.9504   35.0252  -23.2399 C   0  0  0  0  0  0  0  0  0  0  0  0
  -19.0877   34.2791  -22.4116 C   0  0  0  0  0  0  0  0  0  0  0  0
  -19.0326   32.9988  -22.8472 C   0  0  0  0  0  0  0  0  0  0  0  0
  -18.3617   31.8493  -22.4287 C   0  0  0  0  0  0  0  0  0  0  0  0
  -18.5519   30.6954  -23.1338 C   0  0  0  0  0  0  0  0  0  0  0  0
  -17.8948   29.5459  -22.7332 O   0  0  0  0  0  0  0  0  0  0  0  0
  -19.3834   30.6359  -24.2407 C   0  0  0  0  0  0  0  0  0  0  0  0
  -20.0533   31.7820  -24.6592 C   0  0  0  0  0  0  0  0  0  0  0  0
  -19.8490   32.9345  -23.9363 C   0  0  0  0  0  0  0  0  0  0  0  0
  -20.3875   34.1797  -24.1444 N   0  0  0  0  0  0  0  0  0  0  0  0
  -19.4688   37.4150  -22.3652 C   0  0  0  0  0  0  0  0  0  0  0  0
  -18.2534   37.4738  -21.7329 C   0  0  0  0  0  0  0  0  0  0  0  0
  -17.4232   36.3490  -21.6083 N   0  0  0  0  0  0  0  0  0  0  0  0
  -17.8305   38.6579  -21.2060 N   0  0  0  0  0  0  0  0  0  0  0  0
  -18.5437   39.7876  -21.2700 C   0  0  0  0  0  0  0  0  0  0  0  0
  -19.7389   39.7706  -21.8810 N   0  0  0  0  0  0  0  0  0  0  0  0
  -20.1745   38.6287  -22.4032 C   0  0  0  0  0  0  0  0  0  0  0  0
  1  2  1  0
  2  3  1  0
  2  4  1  0
  4  5  1  0
  5  6  2  0
  6  7  1  0
  7  8  2  0
  8  9  1  0
  9 10  2  0
 10 11  1  0
 11 12  1  0
 11 13  2  0
 13 14  1  0
 14 15  2  0
 15 16  1  0
  6 17  1  0
 17 18  2  0
 18 19  1  0
 18 20  1  0
 20 21  2  0
 21 22  1  0
 22 23  2  0
 23  4  1  0
 16  7  1  0
 23 17  1  0
 15  9  1  0
M  END
$$$$
