
     RDKit          3D

 28 31  0  0  0  0  0  0  0  0999 V2000
  -19.8859   39.2798  -25.2232 C   0  0  0  0  0  0  0  0  0  0  0  0
  -19.0049   39.8757  -24.1973 C   0  0  1  0  0  0  0  0  0  0  0  0
  -19.4291   41.3274  -23.9047 C   0  0  0  0  0  0  0  0  0  0  0  0
  -18.9339   41.4424  -22.5258 C   0  0  1  0  0  0  0  0  0  0  0  0
  -19.2787   42.6721  -21.7420 C   0  0  2  0  0  0  0  0  0  0  0  0
  -19.1011   43.9145  -22.5230 C   0  0  0  0  0  0  0  0  0  0  0  0
  -18.5904   45.1191  -21.8359 C   0  0  0  0  0  0  0  0  0  0  0  0
  -17.8240   44.8318  -20.6015 C   0  0  0  0  0  0  0  0  0  0  0  0
  -16.7237   45.5172  -20.3964 C   0  0  0  0  0  0  0  0  0  0  0  0
  -15.9348   45.2710  -19.2007 C   0  0  0  0  0  0  0  0  0  0  0  0
  -14.8654   45.9198  -18.9760 O   0  0  0  0  0  0  0  0  0  0  0  0
  -16.3924   44.2693  -18.2682 C   0  0  0  0  0  0  0  0  0  0  0  0
  -17.5046   43.6001  -18.5074 C   0  0  0  0  0  0  0  0  0  0  0  0
  -18.3481   43.7905  -19.6764 C   0  0  1  0  0  0  0  0  0  0  0  0
  -19.6845   44.3135  -19.1913 C   0  0  0  0  0  0  0  0  0  0  0  0
  -18.4512   42.5482  -20.4837 C   0  0  2  0  0  0  0  0  0  0  0  0
  -17.1469   42.2648  -20.9298 F   0  0  0  0  0  0  0  0  0  0  0  0
  -18.8935   41.3404  -19.7188 C   0  0  1  0  0  0  0  0  0  0  0  0
  -20.0885   41.4455  -19.0660 O   0  0  0  0  0  0  0  0  0  0  0  0
  -18.8845   40.0871  -20.5329 C   0  0  0  0  0  0  0  0  0  0  0  0
  -19.4850   40.1887  -21.8873 C   0  0  1  0  0  0  0  0  0  0  0  0
  -20.9711   40.1034  -21.8977 C   0  0  0  0  0  0  0  0  0  0  0  0
  -18.9462   39.1708  -22.8681 C   0  0  2  0  0  0  0  0  0  0  0  0
  -17.5855   39.0142  -22.5092 O   0  0  0  0  0  0  0  0  0  0  0  0
  -19.5792   37.8637  -22.8318 C   0  0  0  0  0  0  0  0  0  0  0  0
  -20.6938   37.7067  -23.2904 O   0  0  0  0  0  0  0  0  0  0  0  0
  -18.8897   36.6980  -22.2406 C   0  0  0  0  0  0  0  0  0  0  0  0
  -19.6847   35.5778  -22.3040 O   0  0  0  0  0  0  0  0  0  0  0  0
  2  1  1  6
  2  3  1  0
  4  3  1  6
  4  5  1  0
  5  6  1  6
  6  7  1  0
  7  8  1  0
  8  9  2  0
  9 10  1  0
 10 11  2  0
 10 12  1  0
 12 13  2  0
 13 14  1  0
 14 15  1  1
 14 16  1  0
 16 17  1  6
 16 18  1  0
 18 19  1  6
 18 20  1  0
 20 21  1  0
 21 22  1  1
 21 23  1  0
 23 24  1  1
 23 25  1  0
 25 26  2  0
 25 27  1  0
 27 28  1  0
 23  2  1  0
 21  4  1  0
 16  5  1  0
 14  8  1  0
M  END
$$$$
