
     RDKit          3D

 12 12  0  0  0  0  0  0  0  0999 V2000
  -17.4200   42.3942  -21.3060 C   0  0  0  0  0  0  0  0  0  0  0  0
  -17.5064   41.4014  -22.4501 C   0  0  0  0  0  0  0  0  0  0  0  0
  -18.4588   40.3167  -22.0456 C   0  0  0  0  0  0  0  0  0  0  0  0
  -18.7550   39.3718  -23.1942 C   0  0  0  0  0  0  0  0  0  0  0  0
  -19.0008   38.0147  -22.6629 C   0  0  0  0  0  0  0  0  0  0  0  0
  -20.2794   37.6344  -22.2798 C   0  0  0  0  0  0  0  0  0  0  0  0
  -20.4949   36.3680  -21.7866 C   0  0  0  0  0  0  0  0  0  0  0  0
  -19.4474   35.4732  -21.6704 C   0  0  0  0  0  0  0  0  0  0  0  0
  -19.6460   34.1726  -21.1682 O   0  0  0  0  0  0  0  0  0  0  0  0
  -18.1906   35.8658  -22.0536 C   0  0  0  0  0  0  0  0  0  0  0  0
  -17.9384   37.1267  -22.5519 C   0  0  0  0  0  0  0  0  0  0  0  0
  -16.6566   37.4804  -22.9262 O   0  0  0  0  0  0  0  0  0  0  0  0
  1  2  1  0
  2  3  1  0
  3  4  1  0
  4  5  1  0
  5  6  2  0
  6  7  1  0
  7  8  2  0
  8  9  1  0
  8 10  1  0
 10 11  2  0
 11 12  1  0
 11  5  1  0
M  END
$$$$
