
     RDKit          3D

 22 25  0  0  0  0  0  0  0  0999 V2000
  -16.2697   42.1939  -18.3239 C   0  0  0  0  0  0  0  0  0  0  0  0
  -16.9325   42.1319  -19.6600 C   0  0  0  0  0  0  0  0  0  0  0  0
  -16.6760   42.8337  -20.8027 C   0  0  0  0  0  0  0  0  0  0  0  0
  -17.5008   42.4637  -21.7484 O   0  0  0  0  0  0  0  0  0  0  0  0
  -18.3167   41.5335  -21.3025 C   0  0  0  0  0  0  0  0  0  0  0  0
  -17.9955   41.2908  -19.9869 C   0  0  0  0  0  0  0  0  0  0  0  0
  -18.7408   40.2977  -19.2284 C   0  0  0  0  0  0  0  0  0  0  0  0
  -18.4252   40.0984  -18.0319 O   0  0  0  0  0  0  0  0  0  0  0  0
  -19.8400   39.5386  -19.8374 C   0  0  0  0  0  0  0  0  0  0  0  0
  -20.4659   38.6914  -19.1671 O   0  0  0  0  0  0  0  0  0  0  0  0
  -20.1520   39.8221  -21.2327 C   0  0  0  0  0  0  0  0  0  0  0  0
  -19.4180   40.7812  -21.9329 C   0  0  0  0  0  0  0  0  0  0  0  0
  -19.7071   41.0541  -23.2454 C   0  0  0  0  0  0  0  0  0  0  0  0
  -20.7230   40.3731  -23.8541 C   0  0  0  0  0  0  0  0  0  0  0  0
  -21.4623   39.4238  -23.1897 C   0  0  0  0  0  0  0  0  0  0  0  0
  -21.1797   39.1422  -21.8712 C   0  0  0  0  0  0  0  0  0  0  0  0
  -21.9413   38.1206  -21.0964 C   0  0  0  0  0  0  0  0  0  0  0  0
  -22.9864   37.4340  -21.9281 C   0  0  0  0  0  0  0  0  0  0  0  0
  -23.6183   38.4340  -22.8392 C   0  0  0  0  0  0  0  0  0  0  0  0
  -22.5743   38.7142  -23.9285 C   0  0  0  0  0  0  0  0  0  0  0  0
  -21.9971   37.4470  -24.4865 C   0  0  0  0  0  0  0  0  0  0  0  0
  -23.1200   39.5634  -25.0274 C   0  0  0  0  0  0  0  0  0  0  0  0
  1  2  1  0
  2  3  2  0
  3  4  1  0
  4  5  1  0
  5  6  2  0
  6  7  1  0
  7  8  2  0
  7  9  1  0
  9 10  2  0
  9 11  1  0
 11 12  2  0
 12 13  1  0
 13 14  2  0
 14 15  1  0
 15 16  2  0
 16 17  1  0
 17 18  1  0
 18 19  1  0
 19 20  1  0
 20 21  1  0
 20 22  1  0
  6  2  1  0
 16 11  1  0
 12  5  1  0
 20 15  1  0
M  END
$$$$
