
     RDKit          3D

 32 35  0  0  0  0  0  0  0  0999 V2000
  -22.2051   34.8648  -23.8071 C   0  0  0  0  0  0  0  0  0  0  0  0
  -20.7456   35.3260  -23.8955 C   0  0  0  0  0  0  0  0  0  0  0  0
  -20.3197   35.7225  -22.4920 C   0  0  0  0  0  0  0  0  0  0  0  0
  -18.8858   36.1810  -22.4719 C   0  0  0  0  0  0  0  0  0  0  0  0
  -18.4723   36.6336  -21.1764 N   0  0  0  0  0  0  0  0  0  0  0  0
  -18.6089   38.0372  -20.8838 C   0  0  0  0  0  0  0  0  0  0  0  0
  -18.3482   38.4822  -19.6328 N   0  0  0  0  0  0  0  0  0  0  0  0
  -18.4673   39.7743  -19.3640 C   0  0  0  0  0  0  0  0  0  0  0  0
  -18.8609   40.7216  -20.3433 C   0  0  0  0  0  0  0  0  0  0  0  0
  -18.5773   42.1172  -19.9957 C   0  0  0  0  0  0  0  0  0  0  0  0
  -19.4700   43.1593  -20.0510 C   0  0  0  0  0  0  0  0  0  0  0  0
  -19.1107   44.4878  -19.8767 C   0  0  0  0  0  0  0  0  0  0  0  0
  -17.8028   44.8393  -19.6345 C   0  0  0  0  0  0  0  0  0  0  0  0
  -17.3866   46.2398  -19.4457 C   0  0  0  0  0  0  0  0  0  0  0  0
  -16.5334   46.7353  -20.4964 N   0  0  0  0  0  0  0  0  0  0  0  0
  -15.6343   47.7699  -20.0633 C   0  0  0  0  0  0  0  0  0  0  0  0
  -14.7307   48.1017  -21.2338 C   0  0  0  0  0  0  0  0  0  0  0  0
  -15.5673   48.6691  -22.2188 O   0  0  0  0  0  0  0  0  0  0  0  0
  -16.4536   47.7300  -22.7153 C   0  0  0  0  0  0  0  0  0  0  0  0
  -17.2799   47.0526  -21.6737 C   0  0  0  0  0  0  0  0  0  0  0  0
  -16.9258   43.7769  -19.5858 C   0  0  0  0  0  0  0  0  0  0  0  0
  -17.3046   42.5061  -19.7575 N   0  0  0  0  0  0  0  0  0  0  0  0
  -19.1262   40.2559  -21.5719 C   0  0  0  0  0  0  0  0  0  0  0  0
  -19.8651   40.9719  -22.5289 N   0  0  0  0  0  0  0  0  0  0  0  0
  -20.6672   40.4622  -23.5576 C   0  0  1  0  0  0  0  0  0  0  0  0
  -22.1050   40.9898  -23.3482 C   0  0  0  0  0  0  0  0  0  0  0  0
  -22.7245   41.1152  -24.7096 C   0  0  0  0  0  0  0  0  0  0  0  0
  -22.1941   42.4353  -25.2943 C   0  0  2  0  0  0  0  0  0  0  0  0
  -22.2833   42.3891  -26.6755 O   0  0  0  0  0  0  0  0  0  0  0  0
  -20.7340   42.5631  -24.8644 C   0  0  0  0  0  0  0  0  0  0  0  0
  -20.1596   41.1782  -24.8761 C   0  0  0  0  0  0  0  0  0  0  0  0
  -18.9854   38.8950  -21.8218 N   0  0  0  0  0  0  0  0  0  0  0  0
  1  2  1  0
  2  3  1  0
  3  4  1  0
  4  5  1  0
  5  6  1  0
  6  7  2  0
  7  8  1  0
  8  9  2  0
  9 10  1  0
 10 11  2  0
 11 12  1  0
 12 13  2  0
 13 14  1  0
 14 15  1  0
 15 16  1  0
 16 17  1  0
 17 18  1  0
 18 19  1  0
 19 20  1  0
 13 21  1  0
 21 22  2  0
  9 23  1  0
 23 24  1  0
 25 24  1  1
 25 26  1  0
 26 27  1  0
 27 28  1  0
 28 29  1  6
 28 30  1  0
 30 31  1  0
 23 32  2  0
 32  6  1  0
 22 10  1  0
 31 25  1  0
 20 15  1  0
M  END
$$$$
