
     RDKit          3D

 38 42  0  0  0  0  0  0  0  0999 V2000
  -24.4286   44.4833  -24.2157 C   0  0  0  0  0  0  0  0  0  0  0  0
  -23.0363   44.1433  -24.1706 N   0  0  0  0  0  0  0  0  0  0  0  0
  -22.3242   44.4131  -25.4057 C   0  0  0  0  0  0  0  0  0  0  0  0
  -20.8267   44.2241  -25.1923 C   0  0  0  0  0  0  0  0  0  0  0  0
  -20.6083   43.4974  -23.9736 N   0  0  0  0  0  0  0  0  0  0  0  0
  -19.7282   43.8533  -22.9453 C   0  0  0  0  0  0  0  0  0  0  0  0
  -19.3523   45.1632  -22.7645 C   0  0  0  0  0  0  0  0  0  0  0  0
  -18.4921   45.5245  -21.7377 C   0  0  0  0  0  0  0  0  0  0  0  0
  -17.9933   44.5910  -20.8801 C   0  0  0  0  0  0  0  0  0  0  0  0
  -17.1234   44.9074  -19.8309 O   0  0  0  0  0  0  0  0  0  0  0  0
  -16.8436   43.9860  -18.8022 C   0  0  0  0  0  0  0  0  0  0  0  0
  -15.7099   43.2662  -19.1344 F   0  0  0  0  0  0  0  0  0  0  0  0
  -16.5760   44.6661  -17.6527 F   0  0  0  0  0  0  0  0  0  0  0  0
  -17.8408   43.0928  -18.5455 F   0  0  0  0  0  0  0  0  0  0  0  0
  -18.3517   43.2576  -21.0365 C   0  0  0  0  0  0  0  0  0  0  0  0
  -17.8787   42.3051  -20.1267 N   0  0  0  0  0  0  0  0  0  0  0  0
  -18.1528   40.9195  -20.2250 C   0  0  0  0  0  0  0  0  0  0  0  0
  -17.7728   40.2114  -19.1101 N   0  0  0  0  0  0  0  0  0  0  0  0
  -17.9588   38.9106  -18.9749 C   0  0  0  0  0  0  0  0  0  0  0  0
  -18.5798   38.2337  -20.0388 C   0  0  0  0  0  0  0  0  0  0  0  0
  -18.9506   38.9467  -21.1332 C   0  0  0  0  0  0  0  0  0  0  0  0
  -18.7450   40.3007  -21.2523 N   0  0  0  0  0  0  0  0  0  0  0  0
  -19.7337   38.2540  -22.1571 C   0  0  0  0  0  0  0  0  0  0  0  0
  -20.0995   36.9306  -22.0032 C   0  0  0  0  0  0  0  0  0  0  0  0
  -20.7584   36.5602  -23.1916 C   0  0  0  0  0  0  0  0  0  0  0  0
  -21.3319   35.2449  -23.4537 C   0  0  0  0  0  0  0  0  0  0  0  0
  -22.0683   35.0224  -24.6469 N   0  0  0  0  0  0  0  0  0  0  0  0
  -21.1886   34.3106  -22.6532 O   0  0  0  0  0  0  0  0  0  0  0  0
  -20.7455   37.6495  -23.9541 N   0  0  0  0  0  0  0  0  0  0  0  0
  -20.1459   38.6535  -23.3585 N   0  0  0  0  0  0  0  0  0  0  0  0
  -19.9442   39.9377  -23.9672 C   0  0  0  0  0  0  0  0  0  0  0  0
  -18.8221   39.7309  -25.0044 C   0  0  0  0  0  0  0  0  0  0  0  0
  -18.6879   40.8408  -25.8329 O   0  0  0  0  0  0  0  0  0  0  0  0
  -19.8411   36.2294  -20.7460 C   0  0  0  0  0  0  0  0  0  0  0  0
  -18.7205   36.7745  -19.9712 C   0  0  0  0  0  0  0  0  0  0  0  0
  -19.2069   42.9012  -22.0573 C   0  0  0  0  0  0  0  0  0  0  0  0
  -21.4354   42.2956  -23.7935 C   0  0  0  0  0  0  0  0  0  0  0  0
  -22.8680   42.8063  -23.7053 C   0  0  0  0  0  0  0  0  0  0  0  0
  1  2  1  0
  2  3  1  0
  3  4  1  0
  4  5  1  0
  5  6  1  0
  6  7  2  0
  7  8  1  0
  8  9  2  0
  9 10  1  0
 10 11  1  0
 11 12  1  0
 11 13  1  0
 11 14  1  0
  9 15  1  0
 15 16  1  0
 16 17  1  0
 17 18  2  0
 18 19  1  0
 19 20  2  0
 20 21  1  0
 21 22  2  0
 21 23  1  0
 23 24  2  0
 24 25  1  0
 25 26  1  0
 26 27  1  0
 26 28  2  0
 25 29  2  0
 29 30  1  0
 30 31  1  0
 31 32  1  0
 32 33  1  0
 24 34  1  0
 34 35  1  0
 15 36  2  0
  5 37  1  0
 37 38  1  0
 38  2  1  0
 36  6  1  0
 22 17  1  0
 30 23  1  0
 35 20  1  0
M  END
$$$$
