
     RDKit          3D

 29 32  0  0  0  0  0  0  0  0999 V2000
  -19.2542   39.9928  -19.7625 O   0  0  0  0  0  0  0  0  0  0  0  0
  -18.1121   39.8943  -20.2265 C   0  0  0  0  0  0  0  0  0  0  0  0
  -17.9639   39.0983  -21.3785 O   0  0  0  0  0  0  0  0  0  0  0  0
  -16.9226   40.5669  -19.6292 C   0  0  0  0  0  0  0  0  0  0  0  0
  -17.3819   41.6908  -18.7277 C   0  0  0  0  0  0  0  0  0  0  0  0
  -17.0134   42.9621  -19.3109 N   0  0  0  0  0  0  0  0  0  0  0  0
  -17.8819   43.7673  -19.9463 C   0  0  0  0  0  0  0  0  0  0  0  0
  -17.1962   44.8928  -20.3759 C   0  0  0  0  0  0  0  0  0  0  0  0
  -15.8676   44.7651  -19.9876 C   0  0  0  0  0  0  0  0  0  0  0  0
  -14.7590   45.5703  -20.1458 C   0  0  0  0  0  0  0  0  0  0  0  0
  -13.5517   45.1504  -19.6324 C   0  0  0  0  0  0  0  0  0  0  0  0
  -13.5054   43.9409  -18.9818 C   0  0  0  0  0  0  0  0  0  0  0  0
  -14.5924   43.1213  -18.8108 C   0  0  0  0  0  0  0  0  0  0  0  0
  -15.8125   43.5347  -19.3238 C   0  0  0  0  0  0  0  0  0  0  0  0
  -17.9718   45.9212  -21.1071 C   0  0  0  0  0  0  0  0  0  0  0  0
  -18.7348   45.1984  -22.2004 C   0  0  2  0  0  0  0  0  0  0  0  0
  -19.5403   46.1808  -22.8722 N   0  0  0  0  0  0  0  0  0  0  0  0
  -20.5391   47.0349  -21.7539 S   0  0  0  0  0  6  0  0  0  0  0  0
  -21.4226   45.9935  -21.0910 O   0  0  0  0  0  0  0  0  0  0  0  0
  -21.4899   47.9382  -22.5158 O   0  0  0  0  0  0  0  0  0  0  0  0
  -19.6244   47.9135  -20.5837 C   0  0  0  0  0  0  0  0  0  0  0  0
  -18.3192   47.6081  -20.3056 C   0  0  0  0  0  0  0  0  0  0  0  0
  -17.6165   48.3469  -19.3528 C   0  0  0  0  0  0  0  0  0  0  0  0
  -18.1989   49.3927  -18.6680 C   0  0  0  0  0  0  0  0  0  0  0  0
  -17.5189   50.1051  -17.7483 F   0  0  0  0  0  0  0  0  0  0  0  0
  -19.5179   49.6909  -18.9583 C   0  0  0  0  0  0  0  0  0  0  0  0
  -20.2169   48.9656  -19.8976 C   0  0  0  0  0  0  0  0  0  0  0  0
  -19.5332   44.0308  -21.6953 C   0  0  0  0  0  0  0  0  0  0  0  0
  -19.3170   43.6939  -20.2536 C   0  0  0  0  0  0  0  0  0  0  0  0
  1  2  2  0
  2  3  1  0
  2  4  1  0
  4  5  1  0
  5  6  1  0
  6  7  1  0
  7  8  2  0
  8  9  1  0
  9 10  2  0
 10 11  1  0
 11 12  2  0
 12 13  1  0
 13 14  2  0
  8 15  1  0
 15 16  1  0
 16 17  1  1
 17 18  1  0
 18 19  2  0
 18 20  2  0
 18 21  1  0
 21 22  2  0
 22 23  1  0
 23 24  2  0
 24 25  1  0
 24 26  1  0
 26 27  2  0
 16 28  1  0
 28 29  1  0
 14  6  1  0
 27 21  1  0
 29  7  1  0
 14  9  1  0
M  END
$$$$
