
     RDKit          3D

 18 20  0  0  0  0  0  0  0  0999 V2000
  -16.8271   -3.8605  -31.3109 C   0  0  0  0  0  0  0  0  0  0  0  0
  -15.4485   -3.3206  -31.4782 C   0  0  0  0  0  0  0  0  0  0  0  0
  -15.2083   -2.3400  -32.3191 C   0  0  0  0  0  0  0  0  0  0  0  0
  -16.2926   -1.6335  -33.0772 C   0  0  0  0  0  0  0  0  0  0  0  0
  -15.9946   -1.8648  -34.5140 C   0  0  0  0  0  0  0  0  0  0  0  0
  -14.7462   -1.8072  -34.9401 C   0  0  0  0  0  0  0  0  0  0  0  0
  -14.5124   -1.4918  -36.3760 C   0  0  0  0  0  0  0  0  0  0  0  0
  -13.5898   -2.0380  -34.0723 C   0  0  0  0  0  0  0  0  0  0  0  0
  -13.8411   -1.8255  -32.6104 C   0  0  0  0  0  0  0  0  0  0  0  0
  -12.8196   -2.5854  -31.8900 N   0  0  0  0  0  0  0  0  0  0  0  0
  -13.8468   -0.4027  -32.2408 C   0  0  0  0  0  0  0  0  0  0  0  0
  -12.6918    0.2332  -31.7664 C   0  0  0  0  0  0  0  0  0  0  0  0
  -12.7275    1.5682  -31.4264 C   0  0  0  0  0  0  0  0  0  0  0  0
  -13.8814    2.3124  -31.5392 C   0  0  0  0  0  0  0  0  0  0  0  0
  -13.9181    3.5458  -31.2260 O   0  0  0  0  0  0  0  0  0  0  0  0
  -14.9809    1.6903  -31.9952 N   0  0  0  0  0  0  0  0  0  0  0  0
  -14.9748    0.3681  -32.3398 C   0  0  0  0  0  0  0  0  0  0  0  0
  -16.2587   -0.1668  -32.8231 C   0  0  0  0  0  0  0  0  0  0  0  0
  1  2  1  0
  2  3  2  0
  3  4  1  0
  4  5  1  0
  5  6  2  0
  6  7  1  0
  6  8  1  0
  8  9  1  0
  9 10  1  0
  9 11  1  0
 11 12  1  0
 12 13  2  0
 13 14  1  0
 14 15  2  0
 14 16  1  0
 16 17  1  0
 17 18  1  0
  9  3  1  0
 17 11  2  0
 18  4  1  0
M  END
$$$$
