
     RDKit          3D

 29 33  0  0  0  0  0  0  0  0999 V2000
  -14.4098   44.5587  -19.7821 C   0  0  0  0  0  0  0  0  0  0  0  0
  -15.8551   44.1623  -19.6759 C   0  0  2  0  0  0  0  0  0  0  0  0
  -15.9550   42.9611  -18.7973 C   0  0  0  0  0  0  0  0  0  0  0  0
  -17.2696   42.2496  -18.8399 C   0  0  0  0  0  0  0  0  0  0  0  0
  -18.0497   42.4410  -20.0890 C   0  0  0  0  0  0  0  0  0  0  0  0
  -17.1482   42.6721  -21.2313 C   0  0  1  0  0  0  0  0  0  0  0  0
  -17.8160   42.5778  -22.5771 C   0  0  0  0  0  0  0  0  0  0  0  0
  -19.3012   42.4166  -22.4973 C   0  0  0  0  0  0  0  0  0  0  0  0
  -19.7282   41.3044  -21.5649 C   0  0  2  0  0  0  0  0  0  0  0  0
  -19.6652   40.1125  -22.3126 O   0  0  0  0  0  0  0  0  0  0  0  0
  -21.1709   41.5381  -21.2376 C   0  0  0  0  0  0  0  0  0  0  0  0
  -21.7395   40.6522  -20.1979 C   0  0  1  0  0  0  0  0  0  0  0  0
  -22.7440   39.8111  -20.7302 O   0  0  0  0  0  0  0  0  0  0  0  0
  -20.7413   39.8760  -19.3990 C   0  0  0  0  0  0  0  0  0  0  0  0
  -19.5994   40.8553  -19.0985 C   0  0  0  0  0  0  0  0  0  0  0  0
  -18.8384   41.1482  -20.3776 C   0  0  2  0  0  0  0  0  0  0  0  0
  -17.8993   40.0110  -20.5776 C   0  0  0  0  0  0  0  0  0  0  0  0
  -18.2033   38.8379  -20.3103 O   0  0  0  0  0  0  0  0  0  0  0  0
  -16.3847   43.9414  -21.0763 C   0  0  2  0  0  0  0  0  0  0  0  0
  -15.3476   43.8585  -22.0225 O   0  0  0  0  0  0  0  0  0  0  0  0
  -17.1599   45.1879  -21.4587 C   0  0  0  0  0  0  0  0  0  0  0  0
  -16.9945   46.1751  -20.3036 C   0  0  0  0  0  0  0  0  0  0  0  0
  -16.6573   45.2844  -19.1206 C   0  0  2  0  0  0  0  0  0  0  0  0
  -16.1522   46.0244  -17.9575 C   0  0  0  0  0  0  0  0  0  0  0  0
  -16.8035   46.4743  -16.9234 C   0  0  0  0  0  0  0  0  0  0  0  0
  -15.9131   47.1631  -15.9791 C   0  0  0  0  0  0  0  0  0  0  0  0
  -16.2014   47.7153  -14.8830 O   0  0  0  0  0  0  0  0  0  0  0  0
  -14.6677   47.0824  -16.5468 O   0  0  0  0  0  0  0  0  0  0  0  0
  -14.6999   46.4074  -17.7614 C   0  0  0  0  0  0  0  0  0  0  0  0
  2  1  1  6
  2  3  1  0
  3  4  1  0
  4  5  1  0
  5  6  1  0
  6  7  1  6
  7  8  1  0
  8  9  1  0
  9 10  1  6
  9 11  1  0
 11 12  1  0
 12 13  1  6
 12 14  1  0
 14 15  1  0
 15 16  1  0
 16 17  1  6
 17 18  2  0
  6 19  1  0
 19 20  1  6
 19 21  1  0
 21 22  1  0
 22 23  1  0
 23 24  1  1
 24 25  2  0
 25 26  1  0
 26 27  2  0
 26 28  1  0
 28 29  1  0
 19  2  1  0
 29 24  1  0
 23  2  1  0
 16  5  1  0
 16  9  1  0
M  END
$$$$
