
     RDKit          3D

 19 21  0  0  0  0  0  0  0  0999 V2000
  -14.5832   48.0242  -19.1169 C   0  0  0  0  0  0  0  0  0  0  0  0
  -14.0039   46.8460  -18.6339 O   0  0  0  0  0  0  0  0  0  0  0  0
  -14.6257   45.6314  -18.9283 C   0  0  0  0  0  0  0  0  0  0  0  0
  -14.4519   44.5263  -18.1218 C   0  0  0  0  0  0  0  0  0  0  0  0
  -15.0901   43.3550  -18.4614 C   0  0  0  0  0  0  0  0  0  0  0  0
  -15.9029   43.2176  -19.5735 C   0  0  0  0  0  0  0  0  0  0  0  0
  -16.6151   42.2146  -20.1049 N   0  0  0  0  0  0  0  0  0  0  0  0
  -17.2539   42.6120  -21.2326 C   0  0  0  0  0  0  0  0  0  0  0  0
  -18.1321   41.7943  -22.0550 C   0  0  0  0  0  0  0  0  0  0  0  0
  -18.7293   42.3510  -23.0505 O   0  0  0  0  0  0  0  0  0  0  0  0
  -18.4100   40.3919  -21.8678 C   0  0  0  0  0  0  0  0  0  0  0  0
  -19.1915   39.9808  -20.7755 C   0  0  0  0  0  0  0  0  0  0  0  0
  -19.4748   38.6638  -20.5299 C   0  0  0  0  0  0  0  0  0  0  0  0
  -19.0047   37.6654  -21.3472 C   0  0  0  0  0  0  0  0  0  0  0  0
  -18.2341   38.0333  -22.4282 C   0  0  0  0  0  0  0  0  0  0  0  0
  -17.9498   39.3701  -22.6724 C   0  0  0  0  0  0  0  0  0  0  0  0
  -16.9167   43.9327  -21.4045 C   0  0  0  0  0  0  0  0  0  0  0  0
  -16.0634   44.3329  -20.3660 C   0  0  0  0  0  0  0  0  0  0  0  0
  -15.4402   45.5233  -20.0575 C   0  0  0  0  0  0  0  0  0  0  0  0
  1  2  1  0
  2  3  1  0
  3  4  2  0
  4  5  1  0
  5  6  2  0
  6  7  1  0
  7  8  1  0
  8  9  1  0
  9 10  2  0
  9 11  1  0
 11 12  2  0
 12 13  1  0
 13 14  2  0
 14 15  1  0
 15 16  2  0
  8 17  2  0
 17 18  1  0
 18 19  2  0
 19  3  1  0
 18  6  1  0
 16 11  1  0
M  END
$$$$
