
     RDKit          3D

 28 32  0  0  0  0  0  0  0  0999 V2000
  -22.4436   16.6587  -34.9207 C   0  0  0  0  0  0  0  0  0  0  0  0
  -21.4543   17.4965  -35.6499 C   0  0  1  0  0  0  0  0  0  0  0  0
  -20.0910   16.8378  -35.6808 C   0  0  0  0  0  0  0  0  0  0  0  0
  -19.1861   17.8067  -36.2298 N   0  0  0  0  0  0  0  0  0  0  0  0
  -17.9413   18.0244  -35.6072 C   0  0  0  0  0  0  0  0  0  0  0  0
  -17.5602   17.4872  -34.3922 C   0  0  0  0  0  0  0  0  0  0  0  0
  -16.3236   17.7208  -33.8074 C   0  0  0  0  0  0  0  0  0  0  0  0
  -15.9896   17.1225  -32.5261 C   0  0  0  0  0  0  0  0  0  0  0  0
  -14.8692   17.2481  -31.7998 N   0  0  0  0  0  0  0  0  0  0  0  0
  -14.9441   16.5451  -30.6851 N   0  0  0  0  0  0  0  0  0  0  0  0
  -16.1293   15.9302  -30.6460 C   0  0  0  0  0  0  0  0  0  0  0  0
  -16.7382   15.0902  -29.7483 C   0  0  0  0  0  0  0  0  0  0  0  0
  -18.0071   14.5844  -29.9619 C   0  0  0  0  0  0  0  0  0  0  0  0
  -18.6945   14.9253  -31.1075 C   0  0  0  0  0  0  0  0  0  0  0  0
  -19.9502   14.4130  -31.2990 O   0  0  0  0  0  0  0  0  0  0  0  0
  -21.1306   15.1422  -31.4384 C   0  0  0  0  0  0  0  0  0  0  0  0
  -22.3963   14.3151  -31.2202 C   0  0  0  0  0  0  0  0  0  0  0  0
  -21.2171   16.2511  -32.4214 C   0  0  0  0  0  0  0  0  0  0  0  0
  -21.2180   16.5330  -30.9307 C   0  0  0  0  0  0  0  0  0  0  0  0
  -18.0841   15.7725  -32.0160 C   0  0  0  0  0  0  0  0  0  0  0  0
  -16.7996   16.2815  -31.7947 C   0  0  0  0  0  0  0  0  0  0  0  0
  -15.4755   18.5153  -34.4834 N   0  0  0  0  0  0  0  0  0  0  0  0
  -15.7987   19.0613  -35.6671 C   0  0  0  0  0  0  0  0  0  0  0  0
  -16.9879   18.8159  -36.1945 N   0  0  0  0  0  0  0  0  0  0  0  0
  -19.5762   18.5260  -37.3983 C   0  0  0  0  0  0  0  0  0  0  0  0
  -21.0592   18.7293  -37.5611 C   0  0  1  0  0  0  0  0  0  0  0  0
  -21.4151   18.9033  -39.0204 C   0  0  0  0  0  0  0  0  0  0  0  0
  -21.8371   17.7615  -36.9481 O   0  0  0  0  0  0  0  0  0  0  0  0
  2  1  1  6
  2  3  1  0
  3  4  1  0
  4  5  1  0
  5  6  2  0
  6  7  1  0
  7  8  1  0
  8  9  2  0
  9 10  1  0
 10 11  1  0
 11 12  2  0
 12 13  1  0
 13 14  2  0
 14 15  1  0
 15 16  1  0
 16 17  1  0
 16 18  1  0
 18 19  1  0
 14 20  1  0
 20 21  2  0
  7 22  2  0
 22 23  1  0
 23 24  2  0
  4 25  1  0
 25 26  1  0
 26 27  1  6
 26 28  1  0
 28  2  1  0
 24  5  1  0
 21  8  1  0
 21 11  1  0
 19 16  1  0
M  END
$$$$
