
     RDKit          3D

 36 39  0  0  0  0  0  0  0  0999 V2000
  -17.2371   22.1519  -43.9099 C   0  0  0  0  0  0  0  0  0  0  0  0
  -18.6719   22.1253  -43.3754 C   0  0  0  0  0  0  0  0  0  0  0  0
  -18.9121   20.8992  -42.5778 C   0  0  0  0  0  0  0  0  0  0  0  0
  -17.9145   20.2106  -42.2549 O   0  0  0  0  0  0  0  0  0  0  0  0
  -20.1605   20.4710  -42.1682 O   0  0  0  0  0  0  0  0  0  0  0  0
  -20.6235   20.4199  -40.8427 C   0  0  0  0  0  0  0  0  0  0  0  0
  -19.7191   19.6870  -39.9230 C   0  0  0  0  0  0  0  0  0  0  0  0
  -18.7984   19.1492  -40.4338 O   0  0  0  0  0  0  0  0  0  0  0  0
  -19.9896   19.6436  -38.3916 C   0  0  1  0  0  0  0  0  0  0  0  0
  -19.9849   20.9548  -38.0792 O   0  0  0  0  0  0  0  0  0  0  0  0
  -20.6838   22.0682  -38.2422 C   0  0  0  0  0  0  0  0  0  0  0  0
  -20.7097   22.4864  -39.3976 O   0  0  0  0  0  0  0  0  0  0  0  0
  -21.4160   22.8379  -37.2007 C   0  0  0  0  0  0  0  0  0  0  0  0
  -21.8246   24.1610  -37.7962 C   0  0  0  0  0  0  0  0  0  0  0  0
  -21.2009   18.8562  -38.0954 C   0  0  1  0  0  0  0  0  0  0  0  0
  -21.9993   18.3286  -39.2204 C   0  0  0  0  0  0  0  0  0  0  0  0
  -20.7141   17.6632  -37.2541 C   0  0  0  0  0  0  0  0  0  0  0  0
  -19.4736   18.1840  -36.6301 C   0  0  1  0  0  0  0  0  0  0  0  0
  -18.5302   17.1690  -36.0403 C   0  0  2  0  0  0  0  0  0  0  0  0
  -19.2978   16.5798  -34.8430 C   0  0  0  0  0  0  0  0  0  0  0  0
  -18.3997   15.8488  -33.8772 C   0  0  0  0  0  0  0  0  0  0  0  0
  -17.1893   16.6356  -33.5473 C   0  0  0  0  0  0  0  0  0  0  0  0
  -16.7836   16.8791  -32.3284 C   0  0  0  0  0  0  0  0  0  0  0  0
  -15.6035   17.6495  -31.9934 C   0  0  0  0  0  0  0  0  0  0  0  0
  -15.2053   17.8885  -30.8275 O   0  0  0  0  0  0  0  0  0  0  0  0
  -14.8252   18.1846  -33.0994 C   0  0  0  0  0  0  0  0  0  0  0  0
  -15.2396   17.9331  -34.3279 C   0  0  0  0  0  0  0  0  0  0  0  0
  -16.4170   17.1589  -34.6990 C   0  0  1  0  0  0  0  0  0  0  0  0
  -15.9844   15.9382  -35.4957 C   0  0  0  0  0  0  0  0  0  0  0  0
  -17.4057   17.9979  -35.4531 C   0  0  2  0  0  0  0  0  0  0  0  0
  -18.2234   18.9955  -34.1810 Cl  0  0  0  0  0  0  0  0  0  0  0  0
  -16.7718   18.9744  -36.3664 C   0  0  1  0  0  0  0  0  0  0  0  0
  -15.7028   18.4813  -37.1205 O   0  0  0  0  0  0  0  0  0  0  0  0
  -17.7395   19.7590  -37.2153 C   0  0  0  0  0  0  0  0  0  0  0  0
  -18.8479   18.9273  -37.7626 C   0  0  2  0  0  0  0  0  0  0  0  0
  -18.2184   17.8904  -38.6759 C   0  0  0  0  0  0  0  0  0  0  0  0
  1  2  1  0
  2  3  1  0
  3  4  2  0
  3  5  1  0
  5  6  1  0
  6  7  1  0
  7  8  2  0
  7  9  1  0
  9 10  1  1
 10 11  1  0
 11 12  2  0
 11 13  1  0
 13 14  1  0
  9 15  1  0
 15 16  1  6
 15 17  1  0
 18 17  1  6
 18 19  1  0
 19 20  1  1
 20 21  1  0
 21 22  1  0
 22 23  2  0
 23 24  1  0
 24 25  2  0
 24 26  1  0
 26 27  2  0
 27 28  1  0
 28 29  1  6
 28 30  1  0
 30 31  1  1
 30 32  1  0
 32 33  1  6
 32 34  1  0
 34 35  1  0
 35 36  1  6
 35  9  1  0
 35 18  1  0
 30 19  1  0
 28 22  1  0
M  END
$$$$
