
     RDKit          3D

 31 34  0  0  0  0  0  0  0  0999 V2000
  -14.1332   11.0686  -27.8983 C   0  0  0  0  0  0  0  0  0  0  0  0
  -14.0612   12.2471  -28.7722 C   0  0  0  0  0  0  0  0  0  0  0  0
  -12.9054   12.5795  -29.4842 C   0  0  0  0  0  0  0  0  0  0  0  0
  -12.8898   13.6947  -30.2941 C   0  0  0  0  0  0  0  0  0  0  0  0
  -13.9849   14.5200  -30.4413 C   0  0  0  0  0  0  0  0  0  0  0  0
  -13.9370   15.6580  -31.2913 N   0  0  0  0  0  0  0  0  0  0  0  0
  -15.0986   16.3124  -31.7666 C   0  0  0  0  0  0  0  0  0  0  0  0
  -14.9718   17.4100  -32.5314 N   0  0  0  0  0  0  0  0  0  0  0  0
  -16.0022   18.1098  -33.0184 C   0  0  0  0  0  0  0  0  0  0  0  0
  -17.2756   17.6988  -32.7306 C   0  0  0  0  0  0  0  0  0  0  0  0
  -17.4078   16.5709  -31.9447 C   0  0  0  0  0  0  0  0  0  0  0  0
  -18.7077   16.1272  -31.6031 N   0  0  0  0  0  0  0  0  0  0  0  0
  -18.8874   14.8876  -30.8882 C   0  0  0  0  0  0  0  0  0  0  0  0
  -19.8055   16.9360  -31.9941 C   0  0  0  0  0  0  0  0  0  0  0  0
  -20.4358   17.7513  -31.0769 C   0  0  0  0  0  0  0  0  0  0  0  0
  -21.4966   18.5529  -31.4108 C   0  0  0  0  0  0  0  0  0  0  0  0
  -21.9477   18.5418  -32.7115 C   0  0  0  0  0  0  0  0  0  0  0  0
  -22.9481   19.1850  -33.4061 C   0  0  0  0  0  0  0  0  0  0  0  0
  -23.9050   20.1710  -32.8276 C   0  0  0  0  0  0  0  0  0  0  0  0
  -22.9596   18.8077  -34.6873 N   0  0  0  0  0  0  0  0  0  0  0  0
  -23.8759   19.2735  -35.7387 C   0  0  0  0  0  0  0  0  0  0  0  0
  -21.9773   17.9251  -34.8311 N   0  0  0  0  0  0  0  0  0  0  0  0
  -21.3326   17.7352  -33.6439 C   0  0  0  0  0  0  0  0  0  0  0  0
  -20.2560   16.9250  -33.2936 C   0  0  0  0  0  0  0  0  0  0  0  0
  -16.3484   15.8969  -31.4769 N   0  0  0  0  0  0  0  0  0  0  0  0
  -15.1178   14.1782  -29.7318 C   0  0  0  0  0  0  0  0  0  0  0  0
  -15.1707   13.0592  -28.9037 C   0  0  0  0  0  0  0  0  0  0  0  0
  -16.6225   12.6634  -28.0233 S   0  0  0  0  0  6  0  0  0  0  0  0
  -16.3443   12.6477  -26.3186 N   0  0  0  0  0  0  0  0  0  0  0  0
  -17.0343   11.2709  -28.4188 O   0  0  0  0  0  0  0  0  0  0  0  0
  -17.7551   13.5733  -28.3128 O   0  0  0  0  0  0  0  0  0  0  0  0
  1  2  1  0
  2  3  2  0
  3  4  1  0
  4  5  2  0
  5  6  1  0
  6  7  1  0
  7  8  2  0
  8  9  1  0
  9 10  2  0
 10 11  1  0
 11 12  1  0
 12 13  1  0
 12 14  1  0
 14 15  1  0
 15 16  2  0
 16 17  1  0
 17 18  2  0
 18 19  1  0
 18 20  1  0
 20 21  1  0
 20 22  1  0
 22 23  2  0
 23 24  1  0
 11 25  2  0
  5 26  1  0
 26 27  2  0
 27 28  1  0
 28 29  1  0
 28 30  2  0
 28 31  2  0
 27  2  1  0
 25  7  1  0
 24 14  2  0
 23 17  1  0
M  END
$$$$
