
     RDKit          3D

 16 15  0  0  0  0  0  0  0  0999 V2000
  -19.3928   35.5101  -22.5269 Cl  0  0  0  0  0  0  0  0  0  0  0  0
  -19.3607   32.5897  -23.2272 N   0  0  0  0  0  0  0  0  0  0  0  0
  -18.3313   33.2462  -22.9674 C   0  0  0  0  0  0  0  0  0  0  0  0
  -17.0569   32.8280  -23.5361 N   0  0  0  0  0  0  0  0  0  0  0  0
  -18.3836   34.4330  -22.1759 N   0  0  0  0  0  0  0  0  0  0  0  0
  -19.5976   35.0060  -21.7546 C   0  0  0  0  0  0  0  0  0  0  0  0
  -20.7290   34.5146  -22.0476 O   0  0  0  0  0  0  0  0  0  0  0  0
  -19.6917   36.2581  -20.9206 C   0  0  0  0  0  0  0  0  0  0  0  0
  -20.1346   37.3924  -21.7561 C   0  0  0  0  0  0  0  0  0  0  0  0
  -19.1873   38.1170  -22.4454 C   0  0  0  0  0  0  0  0  0  0  0  0
  -17.4484   37.8064  -22.2450 Cl  0  0  0  0  0  0  0  0  0  0  0  0
  -19.6063   39.1518  -23.2959 C   0  0  0  0  0  0  0  0  0  0  0  0
  -20.9467   39.4266  -23.4293 C   0  0  0  0  0  0  0  0  0  0  0  0
  -21.8958   38.6886  -22.7276 C   0  0  0  0  0  0  0  0  0  0  0  0
  -21.4538   37.6711  -21.8956 C   0  0  0  0  0  0  0  0  0  0  0  0
  -22.7101   36.7648  -21.0524 Cl  0  0  0  0  0  0  0  0  0  0  0  0
  2  3  2  0
  3  4  1  0
  3  5  1  0
  5  6  1  0
  6  7  2  0
  6  8  1  0
  8  9  1  0
  9 10  2  0
 10 11  1  0
 10 12  1  0
 12 13  2  0
 13 14  1  0
 14 15  2  0
 15 16  1  0
 15  9  1  0
M  END
$$$$
