
     RDKit          3D

 39 43  0  0  0  0  0  0  0  0999 V2000
  -17.2793   42.1622  -19.3550 C   0  0  0  0  0  0  0  0  0  0  0  0
  -17.4817   42.4736  -20.6600 O   0  0  0  0  0  0  0  0  0  0  0  0
  -16.5427   43.2443  -21.2990 C   0  0  2  0  0  0  0  0  0  0  0  0
  -15.2966   43.2755  -20.5039 C   0  0  0  0  0  0  0  0  0  0  0  0
  -14.7481   42.2447  -20.0850 O   0  0  0  0  0  0  0  0  0  0  0  0
  -14.6558   44.5217  -20.1826 N   0  0  0  0  0  0  0  0  0  0  0  0
  -13.2432   44.5709  -20.0217 C   0  0  1  0  0  0  0  0  0  0  0  0
  -12.6906   45.9637  -20.3261 C   0  0  0  0  0  0  0  0  0  0  0  0
  -12.8536   44.1296  -18.6866 C   0  0  0  0  0  0  0  0  0  0  0  0
  -13.5726   44.5020  -17.5815 C   0  0  0  0  0  0  0  0  0  0  0  0
  -13.2115   44.0826  -16.3044 C   0  0  0  0  0  0  0  0  0  0  0  0
  -12.1154   43.2803  -16.1475 C   0  0  0  0  0  0  0  0  0  0  0  0
  -11.6833   42.8168  -14.8654 N   0  0  0  0  0  0  0  0  0  0  0  0
  -10.5900   42.1084  -14.5924 C   0  0  0  0  0  0  0  0  0  0  0  0
  -10.5289   41.8610  -13.2253 C   0  0  0  0  0  0  0  0  0  0  0  0
   -9.6014   41.1887  -12.5183 F   0  0  0  0  0  0  0  0  0  0  0  0
  -11.6613   42.4722  -12.7081 C   0  0  0  0  0  0  0  0  0  0  0  0
  -12.3241   43.0353  -13.7448 N   0  0  0  0  0  0  0  0  0  0  0  0
  -11.4052   42.9094  -17.2308 N   0  0  0  0  0  0  0  0  0  0  0  0
  -11.7453   43.3083  -18.4610 C   0  0  0  0  0  0  0  0  0  0  0  0
  -17.1459   44.6074  -21.5450 C   0  0  0  0  0  0  0  0  0  0  0  0
  -18.4889   44.3875  -22.2018 C   0  0  0  0  0  0  0  0  0  0  0  0
  -18.3028   43.7798  -23.5296 C   0  0  2  0  0  0  0  0  0  0  0  0
  -19.6433   43.3704  -24.0777 C   0  0  0  0  0  0  0  0  0  0  0  0
  -20.0726   44.0027  -25.1755 N   0  0  0  0  0  0  0  0  0  0  0  0
  -21.2750   43.7468  -25.7401 C   0  0  0  0  0  0  0  0  0  0  0  0
  -21.7553   44.4382  -26.9601 C   0  0  0  0  0  0  0  0  0  0  0  0
  -22.0564   42.7734  -25.1047 C   0  0  0  0  0  0  0  0  0  0  0  0
  -21.6229   42.1245  -23.9817 C   0  0  0  0  0  0  0  0  0  0  0  0
  -22.3809   41.1440  -23.3052 N   0  0  0  0  0  0  0  0  0  0  0  0
  -21.9424   40.4624  -22.1386 C   0  0  0  0  0  0  0  0  0  0  0  0
  -20.7739   40.5813  -21.4444 C   0  0  0  0  0  0  0  0  0  0  0  0
  -20.7928   39.6799  -20.3580 C   0  0  0  0  0  0  0  0  0  0  0  0
  -19.7209   39.4676  -19.3551 C   0  0  0  0  0  0  0  0  0  0  0  0
  -21.9873   39.0674  -20.4636 N   0  0  0  0  0  0  0  0  0  0  0  0
  -22.6713   39.5245  -21.5123 N   0  0  0  0  0  0  0  0  0  0  0  0
  -20.4058   42.4441  -23.4893 N   0  0  0  0  0  0  0  0  0  0  0  0
  -17.3302   42.6432  -23.6336 C   0  0  0  0  0  0  0  0  0  0  0  0
  -16.2696   42.5439  -22.6287 C   0  0  0  0  0  0  0  0  0  0  0  0
  1  2  1  0
  3  2  1  1
  3  4  1  0
  4  5  2  0
  4  6  1  0
  6  7  1  0
  7  8  1  1
  7  9  1  0
  9 10  2  0
 10 11  1  0
 11 12  2  0
 12 13  1  0
 13 14  1  0
 14 15  2  0
 15 16  1  0
 15 17  1  0
 17 18  2  0
 12 19  1  0
 19 20  2  0
  3 21  1  0
 21 22  1  0
 22 23  1  0
 23 24  1  1
 24 25  2  0
 25 26  1  0
 26 27  1  0
 26 28  2  0
 28 29  1  0
 29 30  1  0
 30 31  1  0
 31 32  1  0
 32 33  2  0
 33 34  1  0
 33 35  1  0
 35 36  1  0
 29 37  2  0
 23 38  1  0
 38 39  1  0
 39  3  1  0
 20  9  1  0
 37 24  1  0
 18 13  1  0
 36 31  2  0
M  END
$$$$
