
     RDKit          3D

 44 50  0  0  0  0  0  0  0  0999 V2000
  -18.1824   38.3079  -23.3291 O   0  0  0  0  0  0  0  0  0  0  0  0
  -18.6714   39.1309  -22.5348 C   0  0  0  0  0  0  0  0  0  0  0  0
  -19.6531   38.7630  -21.6184 N   0  0  0  0  0  0  0  0  0  0  0  0
  -20.8562   38.0649  -21.8932 C   0  0  0  0  0  0  0  0  0  0  0  0
  -21.8870   38.7472  -22.5694 C   0  0  0  0  0  0  0  0  0  0  0  0
  -23.0908   38.1790  -22.8767 C   0  0  0  0  0  0  0  0  0  0  0  0
  -23.2997   36.8689  -22.5008 C   0  0  0  0  0  0  0  0  0  0  0  0
  -24.3558   36.0403  -22.6614 N   0  0  0  0  0  0  0  0  0  0  0  0
  -24.0311   34.8751  -22.1153 N   0  0  0  0  0  0  0  0  0  0  0  0
  -22.7957   34.9031  -21.5981 C   0  0  0  0  0  0  0  0  0  0  0  0
  -22.0711   33.8440  -20.9223 C   0  0  0  0  0  0  0  0  0  0  0  0
  -22.6721   32.7080  -20.4323 C   0  0  0  0  0  0  0  0  0  0  0  0
  -21.9376   31.7187  -19.7763 C   0  0  0  0  0  0  0  0  0  0  0  0
  -20.6032   31.8699  -19.6127 N   0  0  0  0  0  0  0  0  0  0  0  0
  -19.9992   32.9667  -20.0812 C   0  0  0  0  0  0  0  0  0  0  0  0
  -20.7059   33.9519  -20.7298 C   0  0  0  0  0  0  0  0  0  0  0  0
  -22.3094   36.1814  -21.8391 C   0  0  0  0  0  0  0  0  0  0  0  0
  -21.0732   36.7631  -21.5240 C   0  0  0  0  0  0  0  0  0  0  0  0
  -18.1515   40.5238  -22.6196 C   0  0  2  0  0  0  0  0  0  0  0  0
  -16.6150   40.5579  -22.4959 C   0  0  0  0  0  0  0  0  0  0  0  0
  -16.4654   42.0576  -22.2683 C   0  0  0  0  0  0  0  0  0  0  0  0
  -17.5068   42.4120  -21.2826 N   0  0  0  0  0  0  0  0  0  0  0  0
  -18.1590   43.6329  -21.7526 C   0  0  0  0  0  0  0  0  0  0  0  0
  -17.9865   44.8259  -20.9615 C   0  0  0  0  0  0  0  0  0  0  0  0
  -18.5748   44.7704  -19.7912 O   0  0  0  0  0  0  0  0  0  0  0  0
  -17.3135   46.0286  -21.2122 N   0  0  0  0  0  0  0  0  0  0  0  0
  -16.1954   46.0570  -22.1873 C   0  0  0  0  0  0  0  0  0  0  0  0
  -14.9496   46.3178  -21.3392 C   0  0  0  0  0  0  0  0  0  0  0  0
  -15.3138   46.5378  -19.9517 N   0  0  0  0  0  0  0  0  0  0  0  0
  -14.5965   45.8349  -18.9627 C   0  0  0  0  0  0  0  0  0  0  0  0
  -14.0251   46.5329  -17.9009 C   0  0  0  0  0  0  0  0  0  0  0  0
  -13.2740   45.9287  -16.9158 C   0  0  0  0  0  0  0  0  0  0  0  0
  -13.0637   44.5612  -16.9618 C   0  0  0  0  0  0  0  0  0  0  0  0
  -12.2593   43.9388  -15.9174 C   0  0  0  0  0  0  0  0  0  0  0  0
  -11.6090   44.7163  -15.0199 N   0  0  0  0  0  0  0  0  0  0  0  0
  -10.8799   44.1050  -14.0590 C   0  0  0  0  0  0  0  0  0  0  0  0
  -10.7705   42.7409  -13.9534 C   0  0  0  0  0  0  0  0  0  0  0  0
  -11.4446   41.9675  -14.8823 C   0  0  0  0  0  0  0  0  0  0  0  0
  -12.1528   42.6153  -15.8150 N   0  0  0  0  0  0  0  0  0  0  0  0
  -13.6196   43.8561  -17.9991 C   0  0  0  0  0  0  0  0  0  0  0  0
  -14.3800   44.4846  -18.9929 C   0  0  0  0  0  0  0  0  0  0  0  0
  -16.3632   47.4487  -19.5681 C   0  0  0  0  0  0  0  0  0  0  0  0
  -17.4973   47.3101  -20.5859 C   0  0  0  0  0  0  0  0  0  0  0  0
  -18.4991   41.3150  -21.3924 C   0  0  0  0  0  0  0  0  0  0  0  0
  1  2  2  0
  2  3  1  0
  3  4  1  0
  4  5  2  0
  5  6  1  0
  6  7  2  0
  7  8  1  0
  8  9  1  0
  9 10  2  0
 10 11  1  0
 11 12  2  0
 12 13  1  0
 13 14  2  0
 14 15  1  0
 15 16  2  0
 10 17  1  0
 17 18  2  0
 19  2  1  1
 19 20  1  0
 20 21  1  0
 21 22  1  0
 22 23  1  0
 23 24  1  0
 24 25  2  0
 24 26  1  0
 26 27  1  0
 27 28  1  0
 28 29  1  0
 29 30  1  0
 30 31  2  0
 31 32  1  0
 32 33  2  0
 33 34  1  0
 34 35  2  0
 35 36  1  0
 36 37  2  0
 37 38  1  0
 38 39  2  0
 33 40  1  0
 40 41  2  0
 29 42  1  0
 42 43  1  0
 22 44  1  0
 18  4  1  0
 44 19  1  0
 17  7  1  0
 43 26  1  0
 16 11  1  0
 41 30  1  0
 39 34  1  0
M  END
$$$$
