
     RDKit          3D

 25 26  0  0  0  0  0  0  0  0999 V2000
  -18.7299   20.6600  -36.8673 C   0  0  0  0  0  0  0  0  0  0  0  0
  -18.5357   19.5405  -37.8713 C   0  0  0  0  0  0  0  0  0  0  0  0
  -19.2560   18.3076  -37.2557 C   0  0  0  0  0  0  0  0  0  0  0  0
  -17.1830   19.1387  -38.0208 N   0  0  0  0  0  0  0  0  0  0  0  0
  -16.7343   18.4710  -39.5121 S   0  0  0  0  0  6  0  0  0  0  0  0
  -17.2716   19.3476  -40.6346 O   0  0  0  0  0  0  0  0  0  0  0  0
  -17.4664   17.1541  -39.6678 O   0  0  0  0  0  0  0  0  0  0  0  0
  -15.0240   18.2030  -39.7083 C   0  0  0  0  0  0  0  0  0  0  0  0
  -14.3178   17.5417  -38.7425 C   0  0  0  0  0  0  0  0  0  0  0  0
  -12.9691   17.3382  -38.9123 C   0  0  0  0  0  0  0  0  0  0  0  0
  -12.2715   17.7688  -40.0189 C   0  0  0  0  0  0  0  0  0  0  0  0
  -10.9115   17.5367  -40.1385 C   0  0  0  0  0  0  0  0  0  0  0  0
  -10.0650   16.6836  -38.8659 Cl  0  0  0  0  0  0  0  0  0  0  0  0
  -10.2273   17.9754  -41.2543 C   0  0  0  0  0  0  0  0  0  0  0  0
  -10.9384   18.6166  -42.1800 N   0  0  0  0  0  0  0  0  0  0  0  0
  -12.2727   18.8708  -42.1132 C   0  0  0  0  0  0  0  0  0  0  0  0
  -12.9425   19.5530  -43.1456 N   0  0  0  0  0  0  0  0  0  0  0  0
  -13.8994   18.8540  -43.9341 C   0  0  0  0  0  0  0  0  0  0  0  0
  -14.1338   17.6015  -43.7705 N   0  0  0  0  0  0  0  0  0  0  0  0
  -14.6474   19.5030  -44.9615 N   0  0  0  0  0  0  0  0  0  0  0  0
  -12.9888   18.4429  -41.0045 C   0  0  0  0  0  0  0  0  0  0  0  0
  -14.3419   18.6508  -40.8413 C   0  0  0  0  0  0  0  0  0  0  0  0
  -19.2830   19.8245  -39.1011 C   0  0  0  0  0  0  0  0  0  0  0  0
  -19.2012   19.0952  -40.1110 O   0  0  0  0  0  0  0  0  0  0  0  0
  -20.1121   20.9259  -39.1815 O   0  0  0  0  0  0  0  0  0  0  0  0
  1  2  1  0
  2  3  1  0
  2  4  1  0
  4  5  1  0
  5  6  2  0
  5  7  2  0
  5  8  1  0
  8  9  2  0
  9 10  1  0
 10 11  2  0
 11 12  1  0
 12 13  1  0
 12 14  2  0
 14 15  1  0
 15 16  2  0
 16 17  1  0
 17 18  1  0
 18 19  2  0
 18 20  1  0
 16 21  1  0
 21 22  2  0
  2 23  1  0
 23 24  2  0
 23 25  1  0
 22  8  1  0
 21 11  1  0
M  END
$$$$
