
     RDKit          3D

 35 39  0  0  0  0  0  0  0  0999 V2000
  -19.7817   50.6924  -22.3883 C   0  0  0  0  0  0  0  0  0  0  0  0
  -18.9832   49.4469  -22.5079 C   0  0  0  0  0  0  0  0  0  0  0  0
  -19.3882   48.5177  -23.2515 O   0  0  0  0  0  0  0  0  0  0  0  0
  -17.7905   49.2537  -21.8274 O   0  0  0  0  0  0  0  0  0  0  0  0
  -17.0954   48.0235  -21.9913 C   0  0  0  0  0  0  0  0  0  0  0  0
  -17.6045   47.0557  -21.0030 C   0  0  0  0  0  0  0  0  0  0  0  0
  -18.6060   47.3544  -20.3212 O   0  0  0  0  0  0  0  0  0  0  0  0
  -17.0481   45.7171  -20.7237 C   0  0  1  0  0  0  0  0  0  0  0  0
  -15.8548   45.5139  -21.4577 O   0  0  0  0  0  0  0  0  0  0  0  0
  -14.8266   45.5007  -20.5519 C   0  0  0  0  0  0  0  0  0  0  0  0
  -13.8084   44.4420  -20.9804 C   0  0  0  0  0  0  0  0  0  0  0  0
  -14.1796   46.8549  -20.5024 C   0  0  0  0  0  0  0  0  0  0  0  0
  -15.3358   45.1130  -19.3149 O   0  0  0  0  0  0  0  0  0  0  0  0
  -16.6456   45.5875  -19.2762 C   0  0  2  0  0  0  0  0  0  0  0  0
  -17.6006   44.5096  -18.7101 C   0  0  0  0  0  0  0  0  0  0  0  0
  -17.6896   43.6296  -19.8692 C   0  0  1  0  0  0  0  0  0  0  0  0
  -18.7848   42.6036  -19.9309 C   0  0  2  0  0  0  0  0  0  0  0  0
  -18.9723   41.8774  -18.6473 C   0  0  0  0  0  0  0  0  0  0  0  0
  -20.0640   40.8122  -18.8699 C   0  0  2  0  0  0  0  0  0  0  0  0
  -20.3266   40.0768  -17.7708 F   0  0  0  0  0  0  0  0  0  0  0  0
  -19.5003   39.9124  -19.9756 C   0  0  0  0  0  0  0  0  0  0  0  0
  -19.2479   38.6834  -19.6914 C   0  0  0  0  0  0  0  0  0  0  0  0
  -18.6989   37.7869  -20.7002 C   0  0  0  0  0  0  0  0  0  0  0  0
  -18.4397   36.5782  -20.4663 O   0  0  0  0  0  0  0  0  0  0  0  0
  -18.4435   38.3153  -22.0246 C   0  0  0  0  0  0  0  0  0  0  0  0
  -18.7316   39.5862  -22.2475 C   0  0  0  0  0  0  0  0  0  0  0  0
  -19.2985   40.5338  -21.2885 C   0  0  1  0  0  0  0  0  0  0  0  0
  -20.6754   41.0031  -21.7576 C   0  0  0  0  0  0  0  0  0  0  0  0
  -18.3525   41.6908  -21.0584 C   0  0  2  0  0  0  0  0  0  0  0  0
  -17.1710   41.0853  -20.5886 F   0  0  0  0  0  0  0  0  0  0  0  0
  -17.9824   42.3925  -22.3139 C   0  0  1  0  0  0  0  0  0  0  0  0
  -19.0627   42.3988  -23.2355 O   0  0  0  0  0  0  0  0  0  0  0  0
  -17.4657   43.7698  -22.2425 C   0  0  0  0  0  0  0  0  0  0  0  0
  -17.9388   44.5558  -21.0274 C   0  0  2  0  0  0  0  0  0  0  0  0
  -19.3657   44.9093  -21.2691 C   0  0  0  0  0  0  0  0  0  0  0  0
  1  2  1  0
  2  3  2  0
  2  4  1  0
  4  5  1  0
  5  6  1  0
  6  7  2  0
  8  6  1  1
  8  9  1  0
  9 10  1  0
 10 11  1  0
 10 12  1  0
 10 13  1  0
 13 14  1  0
 14 15  1  1
 16 15  1  1
 16 17  1  0
 17 18  1  1
 18 19  1  0
 19 20  1  1
 19 21  1  0
 21 22  2  0
 22 23  1  0
 23 24  2  0
 23 25  1  0
 25 26  2  0
 26 27  1  0
 27 28  1  6
 27 29  1  0
 29 30  1  1
 29 31  1  0
 31 32  1  6
 31 33  1  0
 33 34  1  0
 34 35  1  6
 14  8  1  0
 34 16  1  0
 34  8  1  0
 29 17  1  0
 27 21  1  0
M  END
$$$$
