
     RDKit          3D

 16 18  0  0  0  0  0  0  0  0999 V2000
  -24.2355   36.1550  -22.0253 O   0  0  0  0  0  0  0  0  0  0  0  0
  -23.4035   36.6435  -22.8413 C   0  0  0  0  0  0  0  0  0  0  0  0
  -23.9303   37.1217  -24.0556 N   0  0  0  0  0  0  0  0  0  0  0  0
  -23.4971   38.1045  -24.9936 C   0  0  0  0  0  0  0  0  0  0  0  0
  -22.4576   39.0629  -24.4809 C   0  0  0  0  0  0  0  0  0  0  0  0
  -20.8563   38.2278  -24.3359 S   0  0  0  0  0  0  0  0  0  0  0  0
  -20.8744   37.1863  -22.8162 C   0  0  0  0  0  0  0  0  0  0  0  0
  -22.0481   36.6190  -22.3676 C   0  0  0  0  0  0  0  0  0  0  0  0
  -21.5661   35.7564  -20.9437 S   0  0  0  0  0  0  0  0  0  0  0  0
  -19.8131   36.1822  -20.9948 C   0  0  0  0  0  0  0  0  0  0  0  0
  -18.7542   35.8524  -20.1639 C   0  0  0  0  0  0  0  0  0  0  0  0
  -17.4846   36.3466  -20.4739 C   0  0  0  0  0  0  0  0  0  0  0  0
  -17.3898   37.1291  -21.5916 C   0  0  0  0  0  0  0  0  0  0  0  0
  -16.1170   37.6263  -21.9050 O   0  0  0  0  0  0  0  0  0  0  0  0
  -18.4427   37.4378  -22.3895 C   0  0  0  0  0  0  0  0  0  0  0  0
  -19.7495   36.9595  -22.1151 C   0  0  0  0  0  0  0  0  0  0  0  0
  1  2  2  0
  2  3  1  0
  3  4  1  0
  4  5  1  0
  5  6  1  0
  6  7  1  0
  7  8  2  0
  8  9  1  0
  9 10  1  0
 10 11  2  0
 11 12  1  0
 12 13  2  0
 13 14  1  0
 13 15  1  0
 15 16  2  0
  8  2  1  0
 16 10  1  0
 16  7  1  0
M  END
$$$$
