
     RDKit          3D

 22 22  0  0  0  0  0  0  0  0999 V2000
  -27.4482   14.4951  -22.9893 C   0  0  0  0  0  0  0  0  0  0  0  0
  -28.5672   13.8386  -22.2287 C   0  0  0  0  0  0  0  0  0  0  0  0
  -29.5432   14.7792  -21.7173 N   0  0  0  0  0  0  0  0  0  0  0  0
  -28.8816   15.5481  -20.6903 C   0  0  0  0  0  0  0  0  0  0  0  0
  -29.7509   16.5856  -20.0453 C   0  0  0  0  0  0  0  0  0  0  0  0
  -30.6834   14.0491  -21.2246 C   0  0  0  0  0  0  0  0  0  0  0  0
  -30.3709   13.2340  -19.9998 C   0  0  0  0  0  0  0  0  0  0  0  0
  -31.5942   12.5744  -19.6336 O   0  0  0  0  0  0  0  0  0  0  0  0
  -31.6531   11.7286  -18.5471 C   0  0  0  0  0  0  0  0  0  0  0  0
  -30.5744   11.5664  -17.8975 O   0  0  0  0  0  0  0  0  0  0  0  0
  -32.9153   11.0541  -18.1720 C   0  0  0  0  0  0  0  0  0  0  0  0
  -33.4334   10.2256  -19.2610 C   0  0  0  0  0  0  0  0  0  0  0  0
  -34.7664   10.2074  -19.6385 C   0  0  0  0  0  0  0  0  0  0  0  0
  -35.2241    9.4134  -20.6765 C   0  0  0  0  0  0  0  0  0  0  0  0
  -34.3607    8.6118  -21.3698 C   0  0  0  0  0  0  0  0  0  0  0  0
  -33.0286    8.6078  -21.0185 C   0  0  0  0  0  0  0  0  0  0  0  0
  -32.5858    9.4102  -19.9752 C   0  0  0  0  0  0  0  0  0  0  0  0
  -33.8999   12.0922  -17.6784 C   0  0  0  0  0  0  0  0  0  0  0  0
  -33.1913   12.5821  -16.4095 C   0  0  0  0  0  0  0  0  0  0  0  0
  -32.6333   11.3017  -15.7974 C   0  0  0  0  0  0  0  0  0  0  0  0
  -32.6926   10.2563  -16.8960 C   0  0  0  0  0  0  0  0  0  0  0  0
  -30.8049   12.9575  -19.9112 I   0  0  0  0  0  0  0  0  0  0  0  0
  1  2  1  0
  2  3  1  0
  3  4  1  0
  4  5  1  0
  3  6  1  0
  6  7  1  0
  7  8  1  0
  8  9  1  0
  9 10  2  0
  9 11  1  0
 11 12  1  0
 12 13  2  0
 13 14  1  0
 14 15  2  0
 15 16  1  0
 16 17  2  0
 11 18  1  0
 18 19  1  0
 19 20  1  0
 20 21  1  0
 21 11  1  0
 17 12  1  0
M  END
$$$$
