
     RDKit          3D

 25 26  0  0  0  0  0  0  0  0999 V2000
  -23.8577   27.9269  -34.1694 C   0  0  0  0  0  0  0  0  0  0  0  0
  -23.5839   28.0289  -32.6990 C   0  0  0  0  0  0  0  0  0  0  0  0
  -24.0608   26.8899  -32.0151 O   0  0  0  0  0  0  0  0  0  0  0  0
  -25.1198   26.9845  -31.1569 C   0  0  0  0  0  0  0  0  0  0  0  0
  -26.2064   27.5124  -31.5675 O   0  0  0  0  0  0  0  0  0  0  0  0
  -25.1002   26.5185  -29.7825 C   0  0  0  0  0  0  0  0  0  0  0  0
  -26.1166   25.8674  -29.2968 C   0  0  0  0  0  0  0  0  0  0  0  0
  -27.3633   25.5880  -30.0943 C   0  0  0  0  0  0  0  0  0  0  0  0
  -25.9525   25.1448  -28.0696 N   0  0  0  0  0  0  0  0  0  0  0  0
  -24.6677   25.1859  -27.4539 C   0  0  0  0  0  0  0  0  0  0  0  0
  -24.5114   24.3691  -26.1896 C   0  0  0  0  0  0  0  0  0  0  0  0
  -23.6436   25.8749  -27.9116 C   0  0  0  0  0  0  0  0  0  0  0  0
  -22.3613   25.7928  -27.2535 C   0  0  0  0  0  0  0  0  0  0  0  0
  -22.0986   26.1212  -26.0718 O   0  0  0  0  0  0  0  0  0  0  0  0
  -21.2489   25.2780  -27.9674 O   0  0  0  0  0  0  0  0  0  0  0  0
  -20.5025   26.0883  -28.8561 C   0  0  0  0  0  0  0  0  0  0  0  0
  -23.9684   26.9733  -28.8446 C   0  0  0  0  0  0  0  0  0  0  0  0
  -24.5069   28.2314  -28.2272 C   0  0  0  0  0  0  0  0  0  0  0  0
  -25.8966   28.2189  -27.9608 C   0  0  0  0  0  0  0  0  0  0  0  0
  -26.5772   29.3038  -27.4119 C   0  0  0  0  0  0  0  0  0  0  0  0
  -25.8795   30.4427  -27.1104 C   0  0  0  0  0  0  0  0  0  0  0  0
  -24.5516   30.4893  -27.3502 C   0  0  0  0  0  0  0  0  0  0  0  0
  -23.5651   31.9018  -27.0000 Cl  0  0  0  0  0  0  0  0  0  0  0  0
  -23.8805   29.3588  -27.9146 C   0  0  0  0  0  0  0  0  0  0  0  0
  -22.1714   29.5376  -28.1343 Cl  0  0  0  0  0  0  0  0  0  0  0  0
  1  2  1  0
  2  3  1  0
  3  4  1  0
  4  5  2  0
  4  6  1  0
  6  7  2  0
  7  8  1  0
  7  9  1  0
  9 10  1  0
 10 11  1  0
 10 12  2  0
 12 13  1  0
 13 14  2  0
 13 15  1  0
 15 16  1  0
 12 17  1  0
 17 18  1  0
 18 19  2  0
 19 20  1  0
 20 21  2  0
 21 22  1  0
 22 23  1  0
 22 24  2  0
 24 25  1  0
 17  6  1  0
 24 18  1  0
M  END
$$$$
