
     RDKit          3D

 22 24  0  0  0  0  0  0  0  0999 V2000
  -15.0288   14.0168  -28.6958 O   0  0  0  0  0  0  0  0  0  0  0  0
  -16.0705   13.4422  -28.2855 C   0  0  0  0  0  0  0  0  0  0  0  0
  -17.3760   13.8933  -28.7797 C   0  0  0  0  0  0  0  0  0  0  0  0
  -17.3749   15.2888  -29.0052 O   0  0  0  0  0  0  0  0  0  0  0  0
  -17.2571   15.7106  -30.3424 C   0  0  0  0  0  0  0  0  0  0  0  0
  -17.5620   14.8912  -31.4049 C   0  0  0  0  0  0  0  0  0  0  0  0
  -17.4554   15.2791  -32.7221 C   0  0  0  0  0  0  0  0  0  0  0  0
  -17.0162   16.5684  -33.0039 C   0  0  0  0  0  0  0  0  0  0  0  0
  -16.9152   16.9398  -34.3176 C   0  0  0  0  0  0  0  0  0  0  0  0
  -16.4732   18.2364  -34.5854 C   0  0  0  0  0  0  0  0  0  0  0  0
  -16.1530   19.1023  -33.5630 C   0  0  0  0  0  0  0  0  0  0  0  0
  -16.2727   18.6777  -32.2676 C   0  0  0  0  0  0  0  0  0  0  0  0
  -16.7103   17.3904  -31.9391 C   0  0  0  0  0  0  0  0  0  0  0  0
  -16.8181   16.9989  -30.6215 C   0  0  0  0  0  0  0  0  0  0  0  0
  -16.3831   18.1735  -29.1991 Br  0  0  0  0  0  0  0  0  0  0  0  0
  -15.9749   12.3643  -27.3497 N   0  0  0  0  0  0  0  0  0  0  0  0
  -14.6894   11.8828  -27.0220 C   0  0  0  0  0  0  0  0  0  0  0  0
  -13.5262   12.4730  -27.4699 C   0  0  0  0  0  0  0  0  0  0  0  0
  -12.2835   11.9954  -27.1443 C   0  0  0  0  0  0  0  0  0  0  0  0
  -12.1761   10.8928  -26.3460 C   0  0  0  0  0  0  0  0  0  0  0  0
  -13.3042   10.3046  -25.9001 N   0  0  0  0  0  0  0  0  0  0  0  0
  -14.5434   10.7752  -26.2207 C   0  0  0  0  0  0  0  0  0  0  0  0
  1  2  2  0
  2  3  1  0
  3  4  1  0
  4  5  1  0
  5  6  2  0
  6  7  1  0
  7  8  2  0
  8  9  1  0
  9 10  2  0
 10 11  1  0
 11 12  2  0
 12 13  1  0
 13 14  2  0
 14 15  1  0
  2 16  1  0
 16 17  1  0
 17 18  2  0
 18 19  1  0
 19 20  2  0
 20 21  1  0
 21 22  2  0
 14  5  1  0
 22 17  1  0
 13  8  1  0
M  END
$$$$
