
     RDKit          3D

 47 47  0  0  0  0  0  0  0  0999 V2000
  -15.6990   19.4494  -48.3298 C   0  0  0  0  0  0  0  0  0  0  0  0
  -16.0125   18.6863  -47.1859 O   0  0  0  0  0  0  0  0  0  0  0  0
  -16.5625   19.3118  -46.0936 C   0  0  0  0  0  0  0  0  0  0  0  0
  -17.0714   20.4442  -46.2219 O   0  0  0  0  0  0  0  0  0  0  0  0
  -16.5525   18.6561  -44.7783 C   0  0  0  0  0  0  0  0  0  0  0  0
  -17.1367   19.4407  -43.6631 C   0  0  0  0  0  0  0  0  0  0  0  0
  -17.3482   18.6257  -42.3947 C   0  0  2  0  0  0  0  0  0  0  0  0
  -18.6034   19.0378  -41.7502 N   0  0  0  0  0  0  0  0  0  0  0  0
  -18.6649   20.3540  -41.1995 C   0  0  0  0  0  0  0  0  0  0  0  0
  -17.6106   21.0768  -41.2711 O   0  0  0  0  0  0  0  0  0  0  0  0
  -19.8540   20.9204  -40.5598 C   0  0  2  0  0  0  0  0  0  0  0  0
  -19.4771   21.3362  -39.1372 C   0  0  0  0  0  0  0  0  0  0  0  0
  -19.0054   22.7332  -39.1927 C   0  0  0  0  0  0  0  0  0  0  0  0
  -18.6118   23.2079  -40.2779 O   0  0  0  0  0  0  0  0  0  0  0  0
  -18.9914   23.5315  -38.0700 O   0  0  0  0  0  0  0  0  0  0  0  0
  -18.5863   24.8827  -38.1320 C   0  0  0  0  0  0  0  0  0  0  0  0
  -20.9341   19.9915  -40.5741 N   0  0  0  0  0  0  0  0  0  0  0  0
  -21.1258   19.0643  -39.4750 C   0  0  0  0  0  0  0  0  0  0  0  0
  -20.2005   18.9390  -38.6425 O   0  0  0  0  0  0  0  0  0  0  0  0
  -22.2931   18.3736  -39.3933 O   0  0  0  0  0  0  0  0  0  0  0  0
  -23.3547   18.7250  -38.5737 C   0  0  0  0  0  0  0  0  0  0  0  0
  -24.6190   18.0519  -38.9145 C   0  0  0  0  0  0  0  0  0  0  0  0
  -25.8355   18.6395  -38.6392 C   0  0  0  0  0  0  0  0  0  0  0  0
  -27.0314   18.0070  -38.9906 C   0  0  0  0  0  0  0  0  0  0  0  0
  -26.9881   16.7749  -39.6237 C   0  0  0  0  0  0  0  0  0  0  0  0
  -25.7884   16.1736  -39.9075 C   0  0  0  0  0  0  0  0  0  0  0  0
  -24.6080   16.8259  -39.5458 C   0  0  0  0  0  0  0  0  0  0  0  0
  -16.1840   18.9050  -41.4957 C   0  0  0  0  0  0  0  0  0  0  0  0
  -16.1246   19.9296  -40.7668 O   0  0  0  0  0  0  0  0  0  0  0  0
  -15.1013   17.9884  -41.4552 N   0  0  0  0  0  0  0  0  0  0  0  0
  -13.9032   18.2294  -40.7077 C   0  0  2  0  0  0  0  0  0  0  0  0
  -12.7564   18.5866  -41.5502 C   0  0  0  0  0  0  0  0  0  0  0  0
  -11.6682   18.8725  -40.9854 O   0  0  0  0  0  0  0  0  0  0  0  0
  -12.8237   18.6223  -42.9803 N   0  0  0  0  0  0  0  0  0  0  0  0
  -11.6926   18.9785  -43.7787 C   0  0  1  0  0  0  0  0  0  0  0  0
  -11.5590   18.2520  -45.0762 C   0  0  0  0  0  0  0  0  0  0  0  0
  -11.7364   16.7960  -44.9440 C   0  0  0  0  0  0  0  0  0  0  0  0
  -11.3158   16.2012  -43.9224 O   0  0  0  0  0  0  0  0  0  0  0  0
  -12.3716   16.0554  -45.9433 O   0  0  0  0  0  0  0  0  0  0  0  0
  -11.9015   14.7660  -46.2111 C   0  0  0  0  0  0  0  0  0  0  0  0
  -11.6496   20.4429  -43.9933 C   0  0  0  0  0  0  0  0  0  0  0  0
  -12.1795   21.1576  -43.1413 O   0  0  0  0  0  0  0  0  0  0  0  0
  -11.0217   21.0943  -45.1478 C   0  0  0  0  0  0  0  0  0  0  0  0
   -9.6576   20.8850  -45.1744 F   0  0  0  0  0  0  0  0  0  0  0  0
  -13.6664   17.0172  -39.8306 C   0  0  0  0  0  0  0  0  0  0  0  0
  -12.3910   16.3584  -40.3662 C   0  0  0  0  0  0  0  0  0  0  0  0
  -13.3289   17.4362  -38.4042 C   0  0  0  0  0  0  0  0  0  0  0  0
  1  2  1  0
  2  3  1  0
  3  4  2  0
  3  5  1  0
  5  6  1  0
  7  6  1  6
  7  8  1  0
  8  9  1  0
  9 10  2  0
  9 11  1  0
 11 12  1  1
 12 13  1  0
 13 14  2  0
 13 15  1  0
 15 16  1  0
 11 17  1  0
 17 18  1  0
 18 19  2  0
 18 20  1  0
 20 21  1  0
 21 22  1  0
 22 23  2  0
 23 24  1  0
 24 25  2  0
 25 26  1  0
 26 27  2  0
  7 28  1  0
 28 29  2  0
 28 30  1  0
 31 30  1  6
 31 32  1  0
 32 33  2  0
 32 34  1  0
 34 35  1  0
 35 36  1  6
 36 37  1  0
 37 38  2  0
 37 39  1  0
 39 40  1  0
 35 41  1  0
 41 42  2  0
 41 43  1  0
 43 44  1  0
 31 45  1  0
 45 46  1  0
 45 47  1  0
 27 22  1  0
M  END
$$$$
