
     RDKit          3D

 23 25  0  0  0  0  0  0  0  0999 V2000
  -19.5948   42.0980  -16.5217 C   0  0  0  0  0  0  0  0  0  0  0  0
  -20.1635   40.8027  -17.6211 S   0  0  0  0  0  0  0  0  0  0  0  0
  -19.4022   40.8860  -19.2300 C   0  0  0  0  0  0  0  0  0  0  0  0
  -19.6579   39.8784  -20.0818 N   0  0  0  0  0  0  0  0  0  0  0  0
  -19.1375   39.8429  -21.3233 C   0  0  0  0  0  0  0  0  0  0  0  0
  -19.4336   38.7597  -22.1936 N   0  0  0  0  0  0  0  0  0  0  0  0
  -18.5587   37.6095  -22.2662 C   0  0  0  0  0  0  0  0  0  0  0  0
  -18.1172   37.2848  -23.6589 C   0  0  0  0  0  0  0  0  0  0  0  0
  -18.3567   35.8163  -23.8954 C   0  0  0  0  0  0  0  0  0  0  0  0
  -18.4865   35.2455  -22.5055 C   0  0  0  0  0  0  0  0  0  0  0  0
  -19.2905   36.3574  -21.8093 C   0  0  0  0  0  0  0  0  0  0  0  0
  -18.3021   40.9046  -21.7219 C   0  0  0  0  0  0  0  0  0  0  0  0
  -17.8254   40.7718  -23.0493 N   0  0  0  0  0  4  0  0  0  0  0  0
  -17.9463   41.7443  -23.8379 O   0  0  0  0  0  0  0  0  0  0  0  0
  -17.2257   39.6472  -23.5313 O   0  0  0  0  0  1  0  0  0  0  0  0
  -18.0264   41.9413  -20.8740 C   0  0  0  0  0  0  0  0  0  0  0  0
  -17.2017   43.0392  -21.1767 N   0  0  0  0  0  0  0  0  0  0  0  0
  -16.5789   44.0131  -20.3683 C   0  0  0  0  0  0  0  0  0  0  0  0
  -15.0683   43.9682  -20.4825 C   0  0  0  0  0  0  0  0  0  0  0  0
  -14.6749   45.1488  -21.3630 C   0  0  0  0  0  0  0  0  0  0  0  0
  -15.6329   46.2096  -20.8170 C   0  0  0  0  0  0  0  0  0  0  0  0
  -16.9376   45.4259  -20.8702 C   0  0  0  0  0  0  0  0  0  0  0  0
  -18.6161   41.8674  -19.6301 N   0  0  0  0  0  0  0  0  0  0  0  0
  1  2  1  0
  2  3  1  0
  3  4  2  0
  4  5  1  0
  5  6  1  0
  6  7  1  0
  7  8  1  0
  8  9  1  0
  9 10  1  0
 10 11  1  0
  5 12  2  0
 12 13  1  0
 13 14  2  0
 13 15  1  0
 12 16  1  0
 16 17  1  0
 17 18  1  0
 18 19  1  0
 19 20  1  0
 20 21  1  0
 21 22  1  0
 16 23  2  0
 23  3  1  0
 11  7  1  0
 22 18  1  0
M  CHG  2  13   1  15  -1
M  END
$$$$
