
     RDKit          3D

 20 22  0  0  0  0  0  0  0  0999 V2000
  -14.0902   45.2370  -18.8043 N   0  0  0  0  0  0  0  0  0  0  0  0
  -15.3415   44.9508  -19.4153 C   0  0  0  0  0  0  0  0  0  0  0  0
  -16.1509   45.9170  -19.8839 N   0  0  0  0  0  0  0  0  0  0  0  0
  -17.3424   45.6754  -20.4677 C   0  0  0  0  0  0  0  0  0  0  0  0
  -18.3389   47.0202  -21.0545 Cl  0  0  0  0  0  0  0  0  0  0  0  0
  -17.7582   44.4032  -20.5958 N   0  0  0  0  0  0  0  0  0  0  0  0
  -17.0201   43.3808  -20.1596 C   0  0  0  0  0  0  0  0  0  0  0  0
  -15.7930   43.6530  -19.5598 C   0  0  0  0  0  0  0  0  0  0  0  0
  -15.2816   42.4722  -19.2274 N   0  0  0  0  0  0  0  0  0  0  0  0
  -16.1466   41.5124  -19.6013 C   0  0  0  0  0  0  0  0  0  0  0  0
  -17.2380   42.0387  -20.1837 N   0  0  0  0  0  0  0  0  0  0  0  0
  -18.3948   41.3765  -20.7232 C   0  0  2  0  0  0  0  0  0  0  0  0
  -18.2983   39.9929  -20.4913 O   0  0  0  0  0  0  0  0  0  0  0  0
  -19.3300   39.5193  -21.2950 C   0  0  2  0  0  0  0  0  0  0  0  0
  -19.2505   38.0122  -21.3100 C   0  0  0  0  0  0  0  0  0  0  0  0
  -17.9427   37.5692  -21.4905 O   0  0  0  0  0  0  0  0  0  0  0  0
  -19.0263   40.1405  -22.6173 C   0  0  1  0  0  0  0  0  0  0  0  0
  -20.1868   40.2997  -23.3996 O   0  0  0  0  0  0  0  0  0  0  0  0
  -18.5163   41.5116  -22.2183 C   0  0  2  0  0  0  0  0  0  0  0  0
  -17.3089   41.7973  -22.8139 F   0  0  0  0  0  0  0  0  0  0  0  0
  1  2  1  0
  2  3  2  0
  3  4  1  0
  4  5  1  0
  4  6  2  0
  6  7  1  0
  7  8  2  0
  8  9  1  0
  9 10  2  0
 10 11  1  0
 12 11  1  6
 12 13  1  0
 13 14  1  0
 14 15  1  6
 15 16  1  0
 14 17  1  0
 17 18  1  6
 17 19  1  0
 19 20  1  6
  8  2  1  0
 19 12  1  0
 11  7  1  0
M  END
$$$$
