
     RDKit          3D

 27 30  0  0  0  0  0  0  0  0999 V2000
  -11.1674   46.6861  -17.5880 C   0  0  0  0  0  0  0  0  0  0  0  0
  -12.4449   45.9936  -17.9941 C   0  0  0  0  0  0  0  0  0  0  0  0
  -12.0850   44.9963  -19.0888 C   0  0  0  0  0  0  0  0  0  0  0  0
  -13.3299   44.2844  -19.5774 C   0  0  0  0  0  0  0  0  0  0  0  0
  -14.0046   45.2774  -20.5308 C   0  0  0  0  0  0  0  0  0  0  0  0
  -12.9057   43.0258  -20.2775 C   0  0  0  0  0  0  0  0  0  0  0  0
  -14.2471   43.9596  -18.5011 N   0  0  0  0  0  0  0  0  0  0  0  0
  -15.5153   43.4251  -18.7311 C   0  0  0  0  0  0  0  0  0  0  0  0
  -16.4908   43.6932  -17.9707 O   0  0  0  0  0  0  0  0  0  0  0  0
  -15.8232   42.5104  -19.8602 C   0  0  0  0  0  0  0  0  0  0  0  0
  -17.2235   42.0987  -19.8348 N   0  0  0  0  0  0  0  0  0  0  0  0
  -17.8569   41.0994  -19.0500 C   0  0  0  0  0  0  0  0  0  0  0  0
  -17.3028   40.3657  -18.2118 O   0  0  0  0  0  0  0  0  0  0  0  0
  -19.2939   41.0607  -19.3828 C   0  0  0  0  0  0  0  0  0  0  0  0
  -20.3616   40.3061  -18.9418 C   0  0  0  0  0  0  0  0  0  0  0  0
  -21.6379   40.4880  -19.4425 C   0  0  0  0  0  0  0  0  0  0  0  0
  -21.8536   41.4529  -20.4128 C   0  0  0  0  0  0  0  0  0  0  0  0
  -20.7826   42.2056  -20.8512 C   0  0  0  0  0  0  0  0  0  0  0  0
  -19.5032   42.0192  -20.3455 C   0  0  0  0  0  0  0  0  0  0  0  0
  -18.2341   42.6744  -20.6405 C   0  0  0  0  0  0  0  0  0  0  0  0
  -18.0828   43.6147  -21.4932 O   0  0  0  0  0  0  0  0  0  0  0  0
  -13.8586   44.2176  -17.1315 C   0  0  0  0  0  0  0  0  0  0  0  0
  -14.3576   43.4511  -16.0910 C   0  0  0  0  0  0  0  0  0  0  0  0
  -13.9884   43.7272  -14.7760 C   0  0  0  0  0  0  0  0  0  0  0  0
  -13.1315   44.7545  -14.5063 C   0  0  0  0  0  0  0  0  0  0  0  0
  -12.6277   45.5228  -15.5412 C   0  0  0  0  0  0  0  0  0  0  0  0
  -12.9885   45.2518  -16.8234 C   0  0  0  0  0  0  0  0  0  0  0  0
  1  2  1  0
  2  3  1  0
  3  4  1  0
  4  5  1  0
  4  6  1  0
  4  7  1  0
  7  8  1  0
  8  9  2  0
  8 10  1  0
 10 11  1  0
 11 12  1  0
 12 13  2  0
 12 14  1  0
 14 15  2  0
 15 16  1  0
 16 17  2  0
 17 18  1  0
 18 19  2  0
 19 20  1  0
 20 21  2  0
  7 22  1  0
 22 23  2  0
 23 24  1  0
 24 25  2  0
 25 26  1  0
 26 27  2  0
 27  2  1  0
 20 11  1  0
 27 22  1  0
 19 14  1  0
M  END
$$$$
