
     RDKit          3D

 12  9  0  0  0  0  0  0  0  0999 V2000
  -10.5713   11.7463  -25.4651 C   0  0  0  0  0  0  0  0  0  0  0  0
  -11.1678   12.2539  -26.6908 N   0  0  0  0  0  0  0  0  0  0  0  0
  -10.5383   11.6320  -27.8004 C   0  0  0  0  0  0  0  0  0  0  0  0
  -12.5712   12.1160  -26.6005 C   0  0  0  0  0  0  0  0  0  0  0  0
  -13.3629   12.5830  -27.7644 C   0  0  0  0  0  0  0  0  0  0  0  0
  -14.8373   12.3371  -27.4445 C   0  0  0  0  0  0  0  0  0  0  0  0
  -15.9263   12.8550  -28.7656 S   0  0  0  0  0  0  0  0  0  0  0  0
  -15.8577   14.6235  -28.9460 C   0  0  0  0  0  0  0  0  0  0  0  0
  -15.1025   15.3061  -28.1832 N   0  0  0  0  0  0  0  0  0  0  0  0
  -16.6451   15.2960  -29.9443 N   0  0  0  0  0  0  0  0  0  0  0  0
  -13.6362   13.3033  -27.7886 Cl  0  0  0  0  0  0  0  0  0  0  0  0
  -13.6356   13.3029  -27.7883 Cl  0  0  0  0  0  0  0  0  0  0  0  0
  1  2  1  0
  2  3  1  0
  2  4  1  0
  4  5  1  0
  5  6  1  0
  6  7  1  0
  7  8  1  0
  8  9  2  0
  8 10  1  0
M  END
$$$$
