
     RDKit          3D

 31 33  0  0  0  0  0  0  0  0999 V2000
  -20.4315   37.9988  -21.0333 C   0  0  0  0  0  0  0  0  0  0  0  0
  -19.1874   38.6579  -21.0091 O   0  0  0  0  0  0  0  0  0  0  0  0
  -18.9999   39.7649  -20.1932 C   0  0  0  0  0  0  0  0  0  0  0  0
  -19.3550   39.7504  -18.8718 C   0  0  0  0  0  0  0  0  0  0  0  0
  -19.1525   40.8733  -18.0902 C   0  0  0  0  0  0  0  0  0  0  0  0
  -19.5002   40.8746  -16.7709 F   0  0  0  0  0  0  0  0  0  0  0  0
  -18.5991   42.0089  -18.6214 C   0  0  0  0  0  0  0  0  0  0  0  0
  -18.3865   43.1323  -17.8776 F   0  0  0  0  0  0  0  0  0  0  0  0
  -18.2540   41.9697  -19.9832 C   0  0  0  0  0  0  0  0  0  0  0  0
  -17.7564   43.2115  -20.5092 N   0  0  0  0  0  0  0  0  0  0  0  0
  -16.4454   43.5745  -20.1124 C   0  0  0  0  0  0  0  0  0  0  0  0
  -15.6960   42.8069  -19.2502 C   0  0  0  0  0  0  0  0  0  0  0  0
  -14.4228   43.1889  -18.8840 C   0  0  0  0  0  0  0  0  0  0  0  0
  -13.8780   44.3410  -19.3716 C   0  0  0  0  0  0  0  0  0  0  0  0
  -11.9329   44.9448  -18.8254 I   0  0  0  0  0  0  0  0  0  0  0  0
  -14.6033   45.1478  -20.2477 C   0  0  0  0  0  0  0  0  0  0  0  0
  -15.8877   44.7306  -20.5964 C   0  0  0  0  0  0  0  0  0  0  0  0
  -16.5946   45.5200  -21.4522 F   0  0  0  0  0  0  0  0  0  0  0  0
  -18.4306   40.9040  -20.7749 C   0  0  0  0  0  0  0  0  0  0  0  0
  -18.1306   40.8932  -22.1632 N   0  0  0  0  0  0  0  0  0  0  0  0
  -19.1842   41.4825  -23.3330 S   0  0  0  0  0  6  0  0  0  0  0  0
  -20.6140   41.4784  -22.8738 O   0  0  0  0  0  0  0  0  0  0  0  0
  -18.8237   42.9387  -23.6010 O   0  0  0  0  0  0  0  0  0  0  0  0
  -19.0612   40.6855  -24.9526 C   0  0  0  0  0  0  0  0  0  0  0  0
  -20.3736   40.2290  -25.4140 C   0  0  0  0  0  0  0  0  0  0  0  0
  -21.1213   40.8656  -26.4829 C   0  0  2  0  0  0  0  0  0  0  0  0
  -21.0955   42.2053  -26.6723 O   0  0  0  0  0  0  0  0  0  0  0  0
  -22.5569   40.3046  -26.5405 C   0  0  0  0  0  0  0  0  0  0  0  0
  -23.0491   40.7036  -27.7903 O   0  0  0  0  0  0  0  0  0  0  0  0
  -18.0455   39.4788  -24.9463 C   0  0  0  0  0  0  0  0  0  0  0  0
  -17.7785   40.7676  -25.5823 C   0  0  0  0  0  0  0  0  0  0  0  0
  1  2  1  0
  2  3  1  0
  3  4  2  0
  4  5  1  0
  5  6  1  0
  5  7  2  0
  7  8  1  0
  7  9  1  0
  9 10  1  0
 10 11  1  0
 11 12  2  0
 12 13  1  0
 13 14  2  0
 14 15  1  0
 14 16  1  0
 16 17  2  0
 17 18  1  0
  9 19  2  0
 19 20  1  0
 20 21  1  0
 21 22  2  0
 21 23  2  0
 21 24  1  0
 24 25  1  0
 25 26  1  0
 26 27  1  1
 26 28  1  0
 28 29  1  0
 24 30  1  0
 30 31  1  0
 19  3  1  0
 31 24  1  0
 17 11  1  0
M  END
$$$$
