
     RDKit          3D

 30 32  0  0  0  0  0  0  0  0999 V2000
  -13.6937   45.0205  -19.9242 C   0  0  0  0  0  0  0  0  0  0  0  0
  -14.9848   45.4056  -20.5714 C   0  0  0  0  0  0  0  0  0  0  0  0
  -15.8549   46.2102  -19.6101 C   0  0  0  0  0  0  0  0  0  0  0  0
  -14.6789   46.2976  -21.7566 C   0  0  0  0  0  0  0  0  0  0  0  0
  -15.7597   44.1956  -20.9739 C   0  0  0  0  0  0  0  0  0  0  0  0
  -16.7031   44.2656  -21.9692 C   0  0  0  0  0  0  0  0  0  0  0  0
  -17.4149   43.1498  -22.3373 C   0  0  0  0  0  0  0  0  0  0  0  0
  -17.2258   41.9113  -21.7367 C   0  0  0  0  0  0  0  0  0  0  0  0
  -18.1461   40.5071  -22.2253 S   0  0  0  0  0  6  0  0  0  0  0  0
  -17.4167   39.6722  -23.2358 O   0  0  0  0  0  0  0  0  0  0  0  0
  -18.3626   39.6805  -20.9674 O   0  0  0  0  0  0  0  0  0  0  0  0
  -19.7047   40.9702  -22.7840 N   0  0  0  0  0  0  0  0  0  0  0  0
  -19.9108   42.3857  -22.7234 C   0  0  0  0  0  0  0  0  0  0  0  0
  -20.6975   42.8206  -21.5672 C   0  0  0  0  0  0  0  0  0  0  0  0
  -21.6843   42.0329  -21.0306 C   0  0  0  0  0  0  0  0  0  0  0  0
  -22.4207   42.4237  -19.9594 C   0  0  0  0  0  0  0  0  0  0  0  0
  -22.1776   43.6577  -19.3789 C   0  0  0  0  0  0  0  0  0  0  0  0
  -22.9654   44.0616  -18.2427 C   0  0  0  0  0  0  0  0  0  0  0  0
  -22.4191   44.7233  -17.2991 O   0  0  0  0  0  0  0  0  0  0  0  0
  -24.3437   43.7438  -18.1377 N   0  0  0  0  0  0  0  0  0  0  0  0
  -25.0109   44.1791  -16.9314 C   0  0  0  0  0  0  0  0  0  0  0  0
  -24.3504   44.8975  -15.9573 C   0  0  0  0  0  0  0  0  0  0  0  0
  -24.9907   45.3155  -14.7990 C   0  0  0  0  0  0  0  0  0  0  0  0
  -26.3232   44.9960  -14.6328 C   0  0  0  0  0  0  0  0  0  0  0  0
  -26.9698   44.2945  -15.5832 N   0  0  0  0  0  0  0  0  0  0  0  0
  -26.3409   43.8933  -16.7031 C   0  0  0  0  0  0  0  0  0  0  0  0
  -21.2076   44.4660  -19.8833 C   0  0  0  0  0  0  0  0  0  0  0  0
  -20.4585   44.0458  -20.9883 C   0  0  0  0  0  0  0  0  0  0  0  0
  -16.2737   41.8636  -20.7397 C   0  0  0  0  0  0  0  0  0  0  0  0
  -15.5534   42.9774  -20.3622 C   0  0  0  0  0  0  0  0  0  0  0  0
  1  2  1  0
  2  3  1  0
  2  4  1  0
  2  5  1  0
  5  6  2  0
  6  7  1  0
  7  8  2  0
  8  9  1  0
  9 10  2  0
  9 11  2  0
  9 12  1  0
 12 13  1  0
 13 14  1  0
 14 15  2  0
 15 16  1  0
 16 17  2  0
 17 18  1  0
 18 19  2  0
 18 20  1  0
 20 21  1  0
 21 22  2  0
 22 23  1  0
 23 24  2  0
 24 25  1  0
 25 26  2  0
 17 27  1  0
 27 28  2  0
  8 29  1  0
 29 30  2  0
 30  5  1  0
 28 14  1  0
 26 21  1  0
M  END
$$$$
