
     RDKit          3D

 34 34  0  0  0  0  0  0  0  0999 V2000
  -12.8335   42.6865  -20.2659 N   0  0  0  0  0  0  0  0  0  0  0  0
  -13.5585   43.4912  -19.3479 C   0  0  0  0  0  0  0  0  0  0  0  0
  -14.7149   44.0869  -19.6343 N   0  0  0  0  0  0  0  0  0  0  0  0
  -15.3991   44.8416  -18.7800 C   0  0  0  0  0  0  0  0  0  0  0  0
  -14.8895   45.0244  -17.5204 C   0  0  0  0  0  0  0  0  0  0  0  0
  -15.7531   45.8067  -16.8756 N   0  0  0  0  0  0  0  0  0  0  0  0
  -16.7620   46.1090  -17.6790 C   0  0  0  0  0  0  0  0  0  0  0  0
  -16.5620   45.5149  -18.8791 N   0  0  0  0  0  0  0  0  0  0  0  0
  -17.4632   45.6369  -19.9739 C   0  0  2  0  0  0  0  0  0  0  0  0
  -18.6370   44.9290  -19.8499 O   0  0  0  0  0  0  0  0  0  0  0  0
  -18.9978   44.4069  -21.0639 C   0  0  2  0  0  0  0  0  0  0  0  0
  -18.7422   42.9237  -21.1557 C   0  0  0  0  0  0  0  0  0  0  0  0
  -19.4499   42.2107  -20.1943 O   0  0  0  0  0  0  0  0  0  0  0  0
  -19.1922   40.5690  -20.2686 P   0  0  0  0  0  5  0  0  0  0  0  0
  -20.1734   39.8608  -21.1720 O   0  0  0  0  0  0  0  0  0  0  0  0
  -19.3991   39.9399  -18.6917 O   0  0  0  0  0  1  0  0  0  0  0  0
  -17.6312   40.1723  -20.7850 O   0  0  0  0  0  0  0  0  0  0  0  0
  -17.5566   38.6428  -21.4567 P   0  0  0  0  0  5  0  0  0  0  0  0
  -17.2434   37.6512  -20.3646 O   0  0  0  0  0  0  0  0  0  0  0  0
  -16.3365   38.5299  -22.6223 O   0  0  0  0  0  0  0  0  0  0  0  0
  -19.0522   38.2799  -22.1482 O   0  0  0  0  0  0  0  0  0  0  0  0
  -19.3286   36.6293  -22.0499 P   0  0  0  0  0  5  0  0  0  0  0  0
  -18.0454   35.8396  -21.9309 O   0  0  0  0  0  0  0  0  0  0  0  0
  -20.1734   36.1214  -23.4213 O   0  0  0  0  0  1  0  0  0  0  0  0
  -20.2782   36.3275  -20.6705 O   0  0  0  0  0  0  0  0  0  0  0  0
  -18.1838   45.1336  -22.1138 C   0  0  1  0  0  0  0  0  0  0  0  0
  -18.7506   46.3832  -22.2935 O   0  0  0  0  0  0  0  0  0  0  0  0
  -16.8795   45.3174  -21.3213 C   0  0  1  0  0  0  0  0  0  0  0  0
  -16.1527   46.3595  -21.8659 O   0  0  0  0  0  0  0  0  0  0  0  0
  -13.6995   44.4202  -17.2031 C   0  0  0  0  0  0  0  0  0  0  0  0
  -13.2226   44.5844  -16.0418 O   0  0  0  0  0  0  0  0  0  0  0  0
  -13.0424   43.6593  -18.1154 N   0  0  0  0  0  0  0  0  0  0  0  0
  -17.0012   42.6138  -20.4652 Na  0  0  0  0  0 15  0  0  0  0  0  0
  -17.0012   42.6138  -20.4652 Na  0  0  0  0  0 15  0  0  0  0  0  0
  1  2  1  0
  2  3  2  0
  3  4  1  0
  4  5  2  0
  5  6  1  0
  6  7  2  0
  7  8  1  0
  9  8  1  1
  9 10  1  0
 10 11  1  0
 11 12  1  1
 12 13  1  0
 13 14  1  0
 14 15  2  0
 14 16  1  0
 14 17  1  0
 17 18  1  0
 18 19  2  0
 18 20  1  0
 18 21  1  0
 21 22  1  0
 22 23  2  0
 22 24  1  0
 22 25  1  0
 11 26  1  0
 26 27  1  1
 26 28  1  0
 28 29  1  6
  5 30  1  0
 30 31  2  0
 30 32  1  0
 32  2  1  0
  8  4  1  0
 28  9  1  0
M  CHG  4  16  -1  24  -1  33   1  34   1
M  END
$$$$
