
     RDKit          3D

 25 26  0  0  0  0  0  0  0  0999 V2000
  -18.1225   35.7728  -23.8815 C   0  0  0  0  0  0  0  0  0  0  0  0
  -18.4354   35.4965  -22.4470 C   0  0  0  0  0  0  0  0  0  0  0  0
  -19.5591   36.2943  -21.9617 N   0  0  0  0  0  0  0  0  0  0  0  0
  -20.8859   35.7067  -22.1423 C   0  0  0  0  0  0  0  0  0  0  0  0
  -21.1769   34.7207  -21.0117 C   0  0  0  0  0  0  0  0  0  0  0  0
  -19.3905   37.5510  -21.3568 C   0  0  0  0  0  0  0  0  0  0  0  0
  -20.3746   38.1795  -20.8922 O   0  0  0  0  0  0  0  0  0  0  0  0
  -18.0562   38.1441  -21.2616 C   0  0  0  0  0  0  0  0  0  0  0  0
  -18.1262   39.5572  -20.7079 C   0  0  0  0  0  0  0  0  0  0  0  0
  -18.0332   39.7793  -19.3178 C   0  0  0  0  0  0  0  0  0  0  0  0
  -18.1695   41.5618  -19.1623 S   0  0  0  0  0  0  0  0  0  0  0  0
  -18.3392   41.7750  -21.0556 C   0  0  0  0  0  0  0  0  0  0  0  0
  -18.4865   43.1309  -21.4794 N   0  0  0  0  0  0  0  0  0  0  0  0
  -17.7412   44.4585  -20.6950 S   0  0  0  0  0  6  0  0  0  0  0  0
  -18.2600   44.6634  -19.3178 O   0  0  0  0  0  0  0  0  0  0  0  0
  -18.1253   45.7081  -21.4772 O   0  0  0  0  0  0  0  0  0  0  0  0
  -16.0088   44.3154  -20.6460 C   0  0  0  0  0  0  0  0  0  0  0  0
  -15.4120   43.1754  -21.1404 C   0  0  0  0  0  0  0  0  0  0  0  0
  -14.0269   43.0387  -21.1118 C   0  0  0  0  0  0  0  0  0  0  0  0
  -13.2046   44.0244  -20.5946 C   0  0  0  0  0  0  0  0  0  0  0  0
  -13.8078   45.1573  -20.1040 C   0  0  0  0  0  0  0  0  0  0  0  0
  -12.7932   46.4209  -19.4438 Cl  0  0  0  0  0  0  0  0  0  0  0  0
  -15.1829   45.2805  -20.1383 C   0  0  0  0  0  0  0  0  0  0  0  0
  -15.8015   46.5159  -19.6006 C   0  0  0  0  0  0  0  0  0  0  0  0
  -18.2730   40.6703  -21.3806 N   0  0  0  0  0  0  0  0  0  0  0  0
  1  2  1  0
  2  3  1  0
  3  4  1  0
  4  5  1  0
  3  6  1  0
  6  7  2  0
  6  8  1  0
  8  9  1  0
  9 10  2  0
 10 11  1  0
 11 12  1  0
 12 13  1  0
 13 14  1  0
 14 15  2  0
 14 16  2  0
 14 17  1  0
 17 18  2  0
 18 19  1  0
 19 20  2  0
 20 21  1  0
 21 22  1  0
 21 23  2  0
 23 24  1  0
 12 25  2  0
 25  9  1  0
 23 17  1  0
M  END
$$$$
