
     RDKit          3D

 24 26  0  0  0  0  0  0  0  0999 V2000
  -23.2802   35.3917  -23.1491 C   0  0  0  0  0  0  0  0  0  0  0  0
  -22.0262   36.0579  -22.7138 C   0  0  0  0  0  0  0  0  0  0  0  0
  -21.9504   36.6623  -21.4793 C   0  0  0  0  0  0  0  0  0  0  0  0
  -20.7785   37.2670  -21.1112 C   0  0  0  0  0  0  0  0  0  0  0  0
  -19.6736   37.2939  -21.9270 C   0  0  0  0  0  0  0  0  0  0  0  0
  -18.1599   38.0586  -21.5150 S   0  0  0  0  0  6  0  0  0  0  0  0
  -18.2264   38.6347  -20.1111 O   0  0  0  0  0  0  0  0  0  0  0  0
  -17.0330   37.0537  -21.5962 O   0  0  0  0  0  0  0  0  0  0  0  0
  -17.8657   39.3641  -22.5809 N   0  0  0  0  0  0  0  0  0  0  0  0
  -18.3535   40.6942  -22.3629 C   0  0  0  0  0  0  0  0  0  0  0  0
  -19.5537   41.1299  -22.8848 C   0  0  0  0  0  0  0  0  0  0  0  0
  -20.0594   42.4103  -22.6914 C   0  0  0  0  0  0  0  0  0  0  0  0
  -19.3268   43.2912  -21.9406 C   0  0  0  0  0  0  0  0  0  0  0  0
  -18.1220   42.8702  -21.4105 C   0  0  0  0  0  0  0  0  0  0  0  0
  -17.6262   41.6033  -21.6046 C   0  0  0  0  0  0  0  0  0  0  0  0
  -17.6445   43.9551  -20.7286 N   0  0  0  0  0  0  0  0  0  0  0  0
  -16.3826   43.9197  -20.0208 C   0  0  0  0  0  0  0  0  0  0  0  0
  -18.5226   44.9573  -20.8529 C   0  0  0  0  0  0  0  0  0  0  0  0
  -18.3449   46.1000  -20.3206 O   0  0  0  0  0  0  0  0  0  0  0  0
  -19.5749   44.5774  -21.5976 N   0  0  0  0  0  0  0  0  0  0  0  0
  -20.7430   45.3661  -21.9681 C   0  0  0  0  0  0  0  0  0  0  0  0
  -19.7897   36.6708  -23.1698 C   0  0  0  0  0  0  0  0  0  0  0  0
  -18.6464   36.6461  -24.1204 C   0  0  0  0  0  0  0  0  0  0  0  0
  -20.9489   36.0538  -23.5748 C   0  0  0  0  0  0  0  0  0  0  0  0
  1  2  1  0
  2  3  2  0
  3  4  1  0
  4  5  2  0
  5  6  1  0
  6  7  2  0
  6  8  2  0
  6  9  1  0
  9 10  1  0
 10 11  2  0
 11 12  1  0
 12 13  2  0
 13 14  1  0
 14 15  2  0
 14 16  1  0
 16 17  1  0
 16 18  1  0
 18 19  2  0
 18 20  1  0
 20 21  1  0
  5 22  1  0
 22 23  1  0
 22 24  2  0
 24  2  1  0
 15 10  1  0
 20 13  1  0
M  END
$$$$
