
     RDKit          3D

 11  9  0  0  0  0  0  0  0  0999 V2000
  -17.3181   36.5924  -21.0904 C   0  0  0  0  0  0  0  0  0  0  0  0
  -18.7944   36.5798  -21.2567 C   0  0  0  0  0  0  0  0  0  0  0  0
  -19.6820   37.5156  -20.8781 N   0  0  0  0  0  0  0  0  0  0  0  0
  -20.9273   37.1418  -21.1934 C   0  0  0  0  0  0  0  0  0  0  0  0
  -20.8101   35.9488  -21.7807 N   0  0  0  0  0  0  0  0  0  0  0  0
  -19.5149   35.5633  -21.8412 C   0  0  0  0  0  0  0  0  0  0  0  0
  -19.0621   34.2880  -22.4466 C   0  0  0  0  0  0  0  0  0  0  0  0
  -18.4993   34.5422  -23.8486 C   0  0  0  0  0  0  0  0  0  0  0  0
  -18.0497   33.3307  -24.4680 N   0  0  0  0  0  0  0  0  0  0  0  0
  -18.8984   35.0432  -22.7379 Cl  0  0  0  0  0  0  0  0  0  0  0  0
  -18.8984   35.0427  -22.7385 Cl  0  0  0  0  0  0  0  0  0  0  0  0
  1  2  1  0
  2  3  1  0
  3  4  1  0
  4  5  2  0
  5  6  1  0
  6  7  1  0
  7  8  1  0
  8  9  1  0
  6  2  2  0
M  END
$$$$
