
     RDKit          3D

 25 25  0  0  0  0  0  0  0  0999 V2000
  -11.2598    9.9151  -27.1474 C   0  0  0  0  0  0  0  0  0  0  0  0
  -11.2495   11.3549  -26.8332 C   0  0  0  0  0  0  0  0  0  0  0  0
  -10.6647   11.8105  -25.5450 C   0  0  0  0  0  0  0  0  0  0  0  0
  -11.7757   12.2127  -27.7332 C   0  0  0  0  0  0  0  0  0  0  0  0
  -12.3444   11.6968  -28.9926 C   0  0  0  0  0  0  0  0  0  0  0  0
  -12.8703   12.7114  -29.9324 C   0  0  0  0  0  0  0  0  0  0  0  0
  -14.2684   13.1733  -29.7287 C   0  0  0  0  0  0  0  0  0  0  0  0
  -15.1445   12.2917  -28.9173 C   0  0  0  0  0  0  0  0  0  0  0  0
  -14.6771   14.2889  -30.2743 C   0  0  0  0  0  0  0  0  0  0  0  0
  -15.9637   14.9222  -30.1365 C   0  0  0  0  0  0  0  0  0  0  0  0
  -16.8830   14.6348  -29.0281 C   0  0  0  0  0  0  0  0  0  0  0  0
  -18.3174   14.6777  -29.5841 C   0  0  0  0  0  0  0  0  0  0  0  0
  -19.1576   13.4642  -29.5967 C   0  0  0  0  0  0  0  0  0  0  0  0
  -18.8425   15.7945  -30.0658 C   0  0  0  0  0  0  0  0  0  0  0  0
  -20.2424   15.8968  -30.4984 C   0  0  0  0  0  0  0  0  0  0  0  0
  -20.7146   17.4531  -31.2239 S   0  0  0  0  0  0  0  0  0  0  0  0
  -19.7471   18.8387  -30.7449 C   0  0  0  0  0  0  0  0  0  0  0  0
  -18.3814   18.8157  -30.7237 C   0  0  0  0  0  0  0  0  0  0  0  0
  -17.6526   19.9464  -30.3397 C   0  0  0  0  0  0  0  0  0  0  0  0
  -18.2848   21.1158  -29.9715 C   0  0  0  0  0  0  0  0  0  0  0  0
  -19.6656   21.1362  -29.9938 C   0  0  0  0  0  0  0  0  0  0  0  0
  -20.3662   20.0125  -30.3750 C   0  0  0  0  0  0  0  0  0  0  0  0
  -21.8214   20.0877  -30.3815 C   0  0  0  0  0  0  0  0  0  0  0  0
  -22.5102   19.0903  -30.7248 O   0  0  0  0  0  0  0  0  0  0  0  0
  -22.5023   21.2406  -30.0165 O   0  0  0  0  0  0  0  0  0  0  0  0
  1  2  1  0
  2  3  1  0
  2  4  2  3
  4  5  1  0
  5  6  1  0
  6  7  1  0
  7  8  1  0
  7  9  2  0
  9 10  1  0
 10 11  1  0
 11 12  1  0
 12 13  1  0
 12 14  2  0
 14 15  1  0
 15 16  1  0
 16 17  1  0
 17 18  2  0
 18 19  1  0
 19 20  2  0
 20 21  1  0
 21 22  2  0
 22 23  1  0
 23 24  2  0
 23 25  1  0
 22 17  1  0
M  END
$$$$
