
     RDKit          3D

 40 44  0  0  0  0  0  0  0  0999 V2000
  -20.0729   16.6423  -39.1518 O   0  0  0  0  0  0  0  0  0  0  0  0
  -21.1874   17.2037  -39.0295 N   0  0  0  0  0  4  0  0  0  0  0  0
  -22.2065   17.0692  -39.9246 O   0  0  0  0  0  1  0  0  0  0  0  0
  -21.3848   18.0254  -37.8859 C   0  0  0  0  0  0  0  0  0  0  0  0
  -21.3122   17.5379  -36.6006 C   0  0  0  0  0  0  0  0  0  0  0  0
  -21.5023   18.3272  -35.4891 C   0  0  0  0  0  0  0  0  0  0  0  0
  -21.7774   19.6592  -35.6391 C   0  0  0  0  0  0  0  0  0  0  0  0
  -21.9622   20.4238  -34.4558 N   0  0  0  0  0  0  0  0  0  0  0  0
  -20.9278   20.9227  -33.6915 N   0  0  0  0  0  0  0  0  0  0  0  0
  -20.3443   20.2590  -32.7283 C   0  0  0  0  0  0  0  0  0  0  0  0
  -21.0501   20.1294  -31.4803 C   0  0  0  0  0  0  0  0  0  0  0  0
  -22.2410   21.3066  -30.7667 S   0  0  0  0  0  0  0  0  0  0  0  0
  -22.5090   20.2399  -29.2621 C   0  0  0  0  0  0  0  0  0  0  0  0
  -23.4558   20.7358  -28.2517 N   0  0  0  0  0  0  0  0  0  0  0  0
  -23.9510   19.8950  -27.2230 C   0  0  0  0  0  0  0  0  0  0  0  0
  -23.7947   20.6575  -25.8990 C   0  0  0  0  0  0  0  0  0  0  0  0
  -24.4721   21.8513  -26.0685 O   0  0  0  0  0  0  0  0  0  0  0  0
  -23.8729   22.6999  -26.9656 C   0  0  0  0  0  0  0  0  0  0  0  0
  -23.8449   22.0955  -28.3706 C   0  0  0  0  0  0  0  0  0  0  0  0
  -21.8058   19.3496  -29.4870 N   0  0  0  0  0  0  0  0  0  0  0  0
  -21.0148   19.1030  -30.5017 C   0  0  0  0  0  0  0  0  0  0  0  0
  -20.1448   17.8971  -30.6816 C   0  0  0  0  0  0  0  0  0  0  0  0
  -18.9780   17.9806  -31.4119 C   0  0  0  0  0  0  0  0  0  0  0  0
  -18.1681   16.8709  -31.5800 C   0  0  0  0  0  0  0  0  0  0  0  0
  -18.5496   15.6812  -31.0040 C   0  0  0  0  0  0  0  0  0  0  0  0
  -19.7126   15.5786  -30.2705 C   0  0  0  0  0  0  0  0  0  0  0  0
  -20.5196   16.6987  -30.1071 C   0  0  0  0  0  0  0  0  0  0  0  0
  -21.8624   20.2027  -36.9008 C   0  0  0  0  0  0  0  0  0  0  0  0
  -22.2065   21.9136  -37.0628 S   0  0  0  0  0  6  0  0  0  0  0  0
  -21.6556   22.3522  -38.4073 O   0  0  0  0  0  0  0  0  0  0  0  0
  -21.5018   22.6923  -35.9886 O   0  0  0  0  0  0  0  0  0  0  0  0
  -23.9004   22.1943  -37.0797 N   0  0  0  0  0  0  0  0  0  0  0  0
  -24.6500   22.4754  -35.9049 C   0  0  0  0  0  0  0  0  0  0  0  0
  -24.0141   22.6077  -34.6755 C   0  0  0  0  0  0  0  0  0  0  0  0
  -24.6780   22.8837  -33.5116 C   0  0  0  0  0  0  0  0  0  0  0  0
  -26.0481   23.0398  -33.5542 C   0  0  0  0  0  0  0  0  0  0  0  0
  -26.7114   22.9152  -34.7584 C   0  0  0  0  0  0  0  0  0  0  0  0
  -26.0127   22.6370  -35.9100 C   0  0  0  0  0  0  0  0  0  0  0  0
  -26.9009   22.4909  -37.4070 Cl  0  0  0  0  0  0  0  0  0  0  0  0
  -21.6675   19.3901  -37.9906 C   0  0  0  0  0  0  0  0  0  0  0  0
  1  2  2  0
  2  3  1  0
  2  4  1  0
  4  5  2  0
  5  6  1  0
  6  7  2  0
  7  8  1  0
  8  9  1  0
  9 10  2  3
 10 11  1  0
 11 12  1  0
 12 13  1  0
 13 14  1  0
 14 15  1  0
 15 16  1  0
 16 17  1  0
 17 18  1  0
 18 19  1  0
 13 20  2  0
 20 21  1  0
 21 22  1  0
 22 23  2  0
 23 24  1  0
 24 25  2  0
 25 26  1  0
 26 27  2  0
  7 28  1  0
 28 29  1  0
 29 30  2  0
 29 31  2  0
 29 32  1  0
 32 33  1  0
 33 34  2  0
 34 35  1  0
 35 36  2  0
 36 37  1  0
 37 38  2  0
 38 39  1  0
 28 40  2  0
 40  4  1  0
 21 11  2  0
 27 22  1  0
 38 33  1  0
 19 14  1  0
M  CHG  2   2   1   3  -1
M  END
$$$$
