
     RDKit          3D

 39 36  0  0  0  0  0  0  0  0999 V2000
  -19.9552   34.4164  -23.1992 C   0  0  0  0  0  0  0  0  0  0  0  0
  -20.1080   35.8903  -22.9994 C   0  0  0  0  0  0  0  0  0  0  0  0
  -21.3270   36.4734  -23.4407 N   0  0  0  0  0  4  0  0  0  0  0  0
  -22.2018   35.3489  -23.8580 C   0  0  0  0  0  0  0  0  0  0  0  0
  -23.6299   35.7944  -23.9817 C   0  0  0  0  0  0  0  0  0  0  0  0
  -22.0276   37.0952  -22.3308 C   0  0  0  0  0  0  0  0  0  0  0  0
  -22.1036   36.2167  -21.1337 C   0  0  0  0  0  0  0  0  0  0  0  0
  -21.2450   37.3318  -24.5532 C   0  0  0  0  0  0  0  0  0  0  0  0
  -20.0351   38.1868  -24.7460 C   0  0  0  0  0  0  0  0  0  0  0  0
  -19.6602   39.0817  -23.8852 O   0  0  0  0  0  0  0  0  0  0  0  0
  -19.2542   39.8051  -22.8741 C   0  0  0  0  0  0  0  0  0  0  0  0
  -18.9136   39.1476  -21.6780 C   0  0  0  0  0  0  0  0  0  0  0  0
  -18.4844   39.8540  -20.5944 C   0  0  0  0  0  0  0  0  0  0  0  0
  -18.3892   41.2219  -20.6905 C   0  0  0  0  0  0  0  0  0  0  0  0
  -18.6989   41.9220  -21.8100 C   0  0  0  0  0  0  0  0  0  0  0  0
  -18.6212   43.2671  -21.9746 O   0  0  0  0  0  0  0  0  0  0  0  0
  -18.1964   44.2883  -21.1441 C   0  0  0  0  0  0  0  0  0  0  0  0
  -16.7473   44.1619  -20.8292 C   0  0  0  0  0  0  0  0  0  0  0  0
  -16.2201   45.1948  -19.9600 N   0  0  0  0  0  4  0  0  0  0  0  0
  -15.2048   44.6186  -19.0741 C   0  0  0  0  0  0  0  0  0  0  0  0
  -15.6242   43.3526  -18.4235 C   0  0  0  0  0  0  0  0  0  0  0  0
  -15.5526   46.1785  -20.7457 C   0  0  0  0  0  0  0  0  0  0  0  0
  -16.2847   47.4303  -21.0409 C   0  0  0  0  0  0  0  0  0  0  0  0
  -17.2596   45.7044  -19.1210 C   0  0  0  0  0  0  0  0  0  0  0  0
  -16.7711   46.5864  -17.9961 C   0  0  0  0  0  0  0  0  0  0  0  0
  -19.1378   41.2027  -22.9146 C   0  0  0  0  0  0  0  0  0  0  0  0
  -19.4705   41.8486  -24.0756 O   0  0  0  0  0  0  0  0  0  0  0  0
  -20.7232   42.3934  -24.4021 C   0  0  0  0  0  0  0  0  0  0  0  0
  -21.8015   41.3675  -24.4098 C   0  0  0  0  0  0  0  0  0  0  0  0
  -23.1184   41.8449  -24.7281 N   0  0  0  0  0  4  0  0  0  0  0  0
  -23.2820   43.2548  -24.5874 C   0  0  0  0  0  0  0  0  0  0  0  0
  -23.4191   43.7644  -23.1963 C   0  0  0  0  0  0  0  0  0  0  0  0
  -24.0211   41.1082  -23.8256 C   0  0  0  0  0  0  0  0  0  0  0  0
  -25.4221   41.5942  -23.8512 C   0  0  0  0  0  0  0  0  0  0  0  0
  -23.4559   41.4266  -26.0669 C   0  0  0  0  0  0  0  0  0  0  0  0
  -22.7027   42.1300  -27.1477 C   0  0  0  0  0  0  0  0  0  0  0  0
  -20.1810   41.1491  -22.4874 I   0  0  0  0  0 15  0  0  0  0  0  0
  -20.1810   41.1491  -22.4874 I   0  0  0  0  0 15  0  0  0  0  0  0
  -20.1810   41.1491  -22.4874 I   0  0  0  0  0 15  0  0  0  0  0  0
  1  2  1  0
  2  3  1  0
  3  4  1  0
  4  5  1  0
  3  6  1  0
  6  7  1  0
  3  8  1  0
  8  9  1  0
  9 10  1  0
 10 11  1  0
 11 12  2  0
 12 13  1  0
 13 14  2  0
 14 15  1  0
 15 16  1  0
 16 17  1  0
 17 18  1  0
 18 19  1  0
 19 20  1  0
 20 21  1  0
 19 22  1  0
 22 23  1  0
 19 24  1  0
 24 25  1  0
 15 26  2  0
 26 27  1  0
 27 28  1  0
 28 29  1  0
 29 30  1  0
 30 31  1  0
 31 32  1  0
 30 33  1  0
 33 34  1  0
 30 35  1  0
 35 36  1  0
 26 11  1  0
M  CHG  6   3   1  19   1  30   1  37  -1  38  -1  39  -1
M  END
$$$$
