
     RDKit          3D

 32 37  0  0  0  0  0  0  0  0999 V2000
  -16.9302   21.8074  -42.7492 C   0  0  0  0  0  0  0  0  0  0  0  0
  -18.3373   21.8641  -42.5254 N   0  0  0  0  0  0  0  0  0  0  0  0
  -18.8256   23.1518  -42.0988 C   0  0  0  0  0  0  0  0  0  0  0  0
  -18.9281   23.2639  -40.6152 C   0  0  0  0  0  0  0  0  0  0  0  0
  -19.6558   22.2122  -39.9921 N   0  0  0  0  0  0  0  0  0  0  0  0
  -21.0641   22.2337  -40.2084 C   0  0  0  0  0  0  0  0  0  0  0  0
  -21.7751   23.2940  -39.4620 C   0  0  0  0  0  0  0  0  0  0  0  0
  -22.5772   24.2551  -40.0360 C   0  0  0  0  0  0  0  0  0  0  0  0
  -23.2118   25.2176  -39.2512 C   0  0  0  0  0  0  0  0  0  0  0  0
  -23.0725   25.2578  -37.8810 C   0  0  0  0  0  0  0  0  0  0  0  0
  -23.7322   26.2625  -37.0460 C   0  0  0  0  0  0  0  0  0  0  0  0
  -23.0086   27.2816  -36.4556 C   0  0  0  0  0  0  0  0  0  0  0  0
  -23.6028   28.2098  -35.6861 N   0  0  0  0  0  0  0  0  0  0  0  0
  -24.9273   28.1938  -35.4528 C   0  0  0  0  0  0  0  0  0  0  0  0
  -25.7680   28.9736  -34.7399 N   0  0  0  0  0  0  0  0  0  0  0  0
  -27.0234   28.4960  -34.8458 C   0  0  0  0  0  0  0  0  0  0  0  0
  -27.0284   27.3719  -35.6461 C   0  0  0  0  0  0  0  0  0  0  0  0
  -28.1317   26.5363  -36.0457 C   0  0  0  0  0  0  0  0  0  0  0  0
  -29.2532   27.1231  -36.6085 C   0  0  0  0  0  0  0  0  0  0  0  0
  -30.3310   26.3627  -37.0109 C   0  0  0  0  0  0  0  0  0  0  0  0
  -30.3240   24.9829  -36.8633 C   0  0  0  0  0  0  0  0  0  0  0  0
  -31.2273   24.0292  -37.1673 N   0  0  0  0  0  0  0  0  0  0  0  0
  -30.6882   22.8687  -36.8046 C   0  0  0  0  0  0  0  0  0  0  0  0
  -29.4343   23.0600  -36.2639 C   0  0  0  0  0  0  0  0  0  0  0  0
  -29.1964   24.4248  -36.3005 C   0  0  0  0  0  0  0  0  0  0  0  0
  -28.1095   25.1667  -35.8922 C   0  0  0  0  0  0  0  0  0  0  0  0
  -25.7178   27.1875  -36.0220 C   0  0  0  0  0  0  0  0  0  0  0  0
  -25.0907   26.2389  -36.8118 C   0  0  0  0  0  0  0  0  0  0  0  0
  -22.2696   24.2966  -37.3029 C   0  0  0  0  0  0  0  0  0  0  0  0
  -21.6381   23.3413  -38.0690 C   0  0  0  0  0  0  0  0  0  0  0  0
  -19.0389   20.9542  -40.3291 C   0  0  0  0  0  0  0  0  0  0  0  0
  -18.8908   20.7668  -41.7952 C   0  0  0  0  0  0  0  0  0  0  0  0
  1  2  1  0
  2  3  1  0
  3  4  1  0
  4  5  1  0
  5  6  1  0
  6  7  1  0
  7  8  2  0
  8  9  1  0
  9 10  2  0
 10 11  1  0
 11 12  2  0
 12 13  1  0
 13 14  2  0
 14 15  1  0
 15 16  1  0
 16 17  2  0
 17 18  1  0
 18 19  2  0
 19 20  1  0
 20 21  2  0
 21 22  1  0
 22 23  1  0
 23 24  2  0
 24 25  1  0
 25 26  2  0
 17 27  1  0
 27 28  2  0
 10 29  1  0
 29 30  2  0
  5 31  1  0
 31 32  1  0
 32  2  1  0
 30  7  1  0
 28 11  1  0
 27 14  1  0
 26 18  1  0
 25 21  1  0
M  END
$$$$
