
     RDKit          3D

 25 28  0  0  0  0  0  0  0  0999 V2000
  -18.3893   41.3966  -21.0573 C   0  0  0  0  0  0  0  0  0  0  0  0
  -18.7986   40.1492  -21.7711 C   0  0  0  0  0  0  0  0  0  0  0  0
  -18.0529   39.0029  -21.7001 C   0  0  0  0  0  0  0  0  0  0  0  0
  -18.4466   37.8644  -22.3684 C   0  0  0  0  0  0  0  0  0  0  0  0
  -17.6511   36.6673  -22.2843 N   0  0  0  0  0  0  0  0  0  0  0  0
  -18.1973   35.4020  -21.9422 C   0  0  0  0  0  0  0  0  0  0  0  0
  -19.5235   35.2474  -21.6450 C   0  0  0  0  0  0  0  0  0  0  0  0
  -20.0892   34.0155  -21.2878 C   0  0  0  0  0  0  0  0  0  0  0  0
  -21.4739   33.9046  -20.9858 N   0  0  0  0  0  0  0  0  0  0  0  0
  -19.2467   32.9686  -21.2496 N   0  0  0  0  0  0  0  0  0  0  0  0
  -17.9406   33.0990  -21.5380 C   0  0  0  0  0  0  0  0  0  0  0  0
  -17.4093   34.2865  -21.8801 N   0  0  0  0  0  0  0  0  0  0  0  0
  -19.5970   37.9147  -23.0995 C   0  0  0  0  0  0  0  0  0  0  0  0
  -19.9916   36.9047  -23.7215 O   0  0  0  0  0  0  0  0  0  0  0  0
  -20.3654   39.0341  -23.1957 N   0  0  0  0  0  0  0  0  0  0  0  0
  -19.9762   40.1292  -22.5450 C   0  0  0  0  0  0  0  0  0  0  0  0
  -20.9376   41.2089  -22.7710 C   0  0  0  0  0  0  0  0  0  0  0  0
  -20.8525   42.3726  -22.2929 O   0  0  0  0  0  0  0  0  0  0  0  0
  -21.9261   40.6534  -23.6095 N   0  0  0  0  0  0  0  0  0  0  0  0
  -21.5762   39.2999  -23.8955 C   0  0  0  0  0  0  0  0  0  0  0  0
  -22.6443   38.3942  -23.2894 C   0  0  0  0  0  0  0  0  0  0  0  0
  -23.2808   37.4953  -24.3035 C   0  0  0  0  0  0  0  0  0  0  0  0
  -23.8546   38.3233  -25.4402 C   0  0  0  0  0  0  0  0  0  0  0  0
  -22.8348   39.2990  -25.9808 C   0  0  0  0  0  0  0  0  0  0  0  0
  -21.4595   39.0471  -25.3875 C   0  0  0  0  0  0  0  0  0  0  0  0
  1  2  1  0
  2  3  1  0
  3  4  2  0
  4  5  1  0
  5  6  1  0
  6  7  2  0
  7  8  1  0
  8  9  1  0
  8 10  2  0
 10 11  1  0
 11 12  2  0
  4 13  1  0
 13 14  2  0
 13 15  1  0
 15 16  1  0
 16 17  1  0
 17 18  2  0
 17 19  1  0
 19 20  1  0
 20 21  1  0
 21 22  1  0
 22 23  1  0
 23 24  1  0
 24 25  1  0
 16  2  2  0
 25 20  1  0
 12  6  1  0
 20 15  1  0
M  END
$$$$
