
     RDKit          3D

 28 32  0  0  0  0  0  0  0  0999 V2000
  -23.9665   42.3569  -22.9765 C   0  0  0  0  0  0  0  0  0  0  0  0
  -22.7153   42.7032  -22.5114 C   0  0  0  0  0  0  0  0  0  0  0  0
  -21.7967   41.7121  -22.2480 C   0  0  0  0  0  0  0  0  0  0  0  0
  -22.0814   40.3762  -22.4325 C   0  0  0  0  0  0  0  0  0  0  0  0
  -21.0895   39.3492  -22.1430 C   0  0  0  0  0  0  0  0  0  0  0  0
  -20.0503   39.3835  -21.3689 O   0  0  0  0  0  0  0  0  0  0  0  0
  -19.4085   38.2328  -21.3873 C   0  0  0  0  0  0  0  0  0  0  0  0
  -18.3009   37.7865  -20.7668 N   0  0  0  0  0  0  0  0  0  0  0  0
  -17.8197   36.5460  -20.9404 C   0  0  0  0  0  0  0  0  0  0  0  0
  -18.4626   35.7073  -21.7653 N   0  0  0  0  0  0  0  0  0  0  0  0
  -19.5829   36.0622  -22.4338 C   0  0  0  0  0  0  0  0  0  0  0  0
  -20.2227   35.1375  -23.2874 N   0  0  0  0  0  0  0  0  0  0  0  0
  -20.1034   35.2103  -24.7372 C   0  0  0  0  0  0  0  0  0  0  0  0
  -18.9981   34.3255  -25.2083 C   0  0  2  0  0  0  0  0  0  0  0  0
  -19.5544   33.2423  -26.1315 C   0  0  0  0  0  0  0  0  0  0  0  0
  -18.3984   32.2503  -26.1270 C   0  0  0  0  0  0  0  0  0  0  0  0
  -17.6668   32.6083  -24.8516 C   0  0  0  0  0  0  0  0  0  0  0  0
  -18.4865   33.5325  -24.1765 O   0  0  0  0  0  0  0  0  0  0  0  0
  -20.0637   37.3365  -22.2461 C   0  0  0  0  0  0  0  0  0  0  0  0
  -21.1315   38.0650  -22.7182 C   0  0  0  0  0  0  0  0  0  0  0  0
  -22.1313   37.5937  -23.6514 C   0  0  0  0  0  0  0  0  0  0  0  0
  -23.1045   36.6691  -23.3302 C   0  0  0  0  0  0  0  0  0  0  0  0
  -24.0792   36.2315  -24.2013 C   0  0  0  0  0  0  0  0  0  0  0  0
  -24.0529   36.7734  -25.4715 C   0  0  0  0  0  0  0  0  0  0  0  0
  -23.1141   37.7004  -25.8667 C   0  0  0  0  0  0  0  0  0  0  0  0
  -22.1661   38.0989  -24.9537 C   0  0  0  0  0  0  0  0  0  0  0  0
  -23.3470   40.0843  -22.8992 C   0  0  0  0  0  0  0  0  0  0  0  0
  -24.3042   41.0357  -23.1789 C   0  0  0  0  0  0  0  0  0  0  0  0
  1  2  2  0
  2  3  1  0
  3  4  2  0
  4  5  1  0
  5  6  1  0
  6  7  1  0
  7  8  2  0
  8  9  1  0
  9 10  2  0
 10 11  1  0
 11 12  1  0
 12 13  1  0
 14 13  1  1
 14 15  1  0
 15 16  1  0
 16 17  1  0
 17 18  1  0
 11 19  2  0
 19 20  1  0
 20 21  1  0
 21 22  2  0
 22 23  1  0
 23 24  2  0
 24 25  1  0
 25 26  2  0
  4 27  1  0
 27 28  2  0
 28  1  1  0
 20  5  2  0
 26 21  1  0
 19  7  1  0
 18 14  1  0
M  END
$$$$
