
     RDKit          3D

 25 28  0  0  0  0  0  0  0  0999 V2000
  -24.0812   11.9126  -17.4253 C   0  0  0  0  0  0  0  0  0  0  0  0
  -24.9844   10.7605  -17.8674 C   0  0  0  0  0  0  0  0  0  0  0  0
  -24.1768    9.6418  -18.4922 C   0  0  0  0  0  0  0  0  0  0  0  0
  -26.0228   11.1713  -18.7787 C   0  0  0  0  0  0  0  0  0  0  0  0
  -26.0629   12.1044  -19.7965 C   0  0  0  0  0  0  0  0  0  0  0  0
  -27.1773   12.2883  -20.5001 C   0  0  0  0  0  0  0  0  0  0  0  0
  -27.3718   13.1991  -21.5665 C   0  0  0  0  0  0  0  0  0  0  0  0
  -26.3567   14.0675  -22.0271 N   0  0  0  0  0  0  0  0  0  0  0  0
  -25.4266   14.6249  -21.0657 C   0  0  0  0  0  0  0  0  0  0  0  0
  -24.0643   14.7369  -21.7477 C   0  0  0  0  0  0  0  0  0  0  0  0
  -24.2065   15.7155  -22.7861 N   0  0  0  0  0  0  0  0  0  0  0  0
  -23.1978   16.6841  -23.0586 C   0  0  0  0  0  0  0  0  0  0  0  0
  -23.1436   17.5587  -23.9691 N   0  0  0  0  0  0  0  0  0  0  0  0
  -22.0555   18.4244  -24.0698 C   0  0  0  0  0  0  0  0  0  0  0  0
  -21.3448   18.5950  -22.7417 C   0  0  0  0  0  0  0  0  0  0  0  0
  -21.9985   19.6297  -21.8682 C   0  0  0  0  0  0  0  0  0  0  0  0
  -19.8735   18.8097  -22.9060 C   0  0  0  0  0  0  0  0  0  0  0  0
  -21.6856   16.8981  -22.0978 S   0  0  0  0  0  0  0  0  0  0  0  0
  -25.4128   15.7193  -23.5831 C   0  0  0  0  0  0  0  0  0  0  0  0
  -26.1866   14.4402  -23.4175 C   0  0  0  0  0  0  0  0  0  0  0  0
  -28.5559   13.2521  -22.1640 N   0  0  0  0  0  0  0  0  0  0  0  0
  -29.6164   12.5136  -21.8551 C   0  0  0  0  0  0  0  0  0  0  0  0
  -29.4805   11.6276  -20.8418 N   0  0  0  0  0  0  0  0  0  0  0  0
  -28.2929   11.5236  -20.1881 C   0  0  0  0  0  0  0  0  0  0  0  0
  -27.7094   10.5188  -18.8463 S   0  0  0  0  0  0  0  0  0  0  0  0
  1  2  1  0
  2  3  1  0
  2  4  1  0
  4  5  2  0
  5  6  1  0
  6  7  2  0
  7  8  1  0
  8  9  1  0
  9 10  1  0
 10 11  1  0
 11 12  1  0
 12 13  2  0
 13 14  1  0
 14 15  1  0
 15 16  1  0
 15 17  1  0
 15 18  1  0
 11 19  1  0
 19 20  1  0
  7 21  1  0
 21 22  2  0
 22 23  1  0
 23 24  2  0
 24 25  1  0
 25  4  1  0
 24  6  1  0
 20  8  1  0
 18 12  1  0
M  END
$$$$
