
     RDKit          3D

 17 19  0  0  0  0  0  0  0  0999 V2000
  -12.2867   45.7287  -18.6377 N   0  0  0  0  0  0  0  0  0  0  0  0
  -13.1997   45.1299  -19.0598 C   0  0  0  0  0  0  0  0  0  0  0  0
  -14.3065   44.3769  -19.5725 C   0  0  0  0  0  0  0  0  0  0  0  0
  -14.2901   43.0041  -19.6106 C   0  0  0  0  0  0  0  0  0  0  0  0
  -15.3834   42.2877  -20.1161 C   0  0  0  0  0  0  0  0  0  0  0  0
  -16.4888   42.9519  -20.5814 C   0  0  0  0  0  0  0  0  0  0  0  0
  -17.6265   42.2188  -21.1070 C   0  0  0  0  0  0  0  0  0  0  0  0
  -17.3059   41.4109  -22.3475 C   0  0  0  0  0  0  0  0  0  0  0  0
  -18.6053   40.9905  -22.9735 C   0  0  0  0  0  0  0  0  0  0  0  0
  -19.7207   40.9440  -21.9575 C   0  0  0  0  0  0  0  0  0  0  0  0
  -19.2388   40.5640  -20.6038 C   0  0  0  0  0  0  0  0  0  0  0  0
  -19.5916   39.6925  -19.6171 C   0  0  0  0  0  0  0  0  0  0  0  0
  -18.7137   39.8542  -18.6145 N   0  0  0  0  0  0  0  0  0  0  0  0
  -17.8075   40.8105  -18.9398 C   0  0  0  0  0  0  0  0  0  0  0  0
  -18.1480   41.2257  -20.1523 N   0  0  0  0  0  0  0  0  0  0  0  0
  -16.4931   44.3230  -20.5380 C   0  0  0  0  0  0  0  0  0  0  0  0
  -15.4151   45.0458  -20.0390 C   0  0  0  0  0  0  0  0  0  0  0  0
  1  2  3  0
  2  3  1  0
  3  4  2  0
  4  5  1  0
  5  6  2  0
  6  7  1  0
  7  8  1  0
  8  9  1  0
  9 10  1  0
 10 11  1  0
 11 12  2  0
 12 13  1  0
 13 14  2  0
 14 15  1  0
  6 16  1  0
 16 17  2  0
 17  3  1  0
 15  7  1  0
 15 11  1  0
M  END
$$$$
