
     RDKit          3D

 21 23  0  0  0  0  0  0  0  0999 V2000
  -22.6334   35.3589  -21.6977 C   0  0  0  0  0  0  0  0  0  0  0  0
  -21.4029   35.4179  -20.8476 C   0  0  0  0  0  0  0  0  0  0  0  0
  -20.4069   36.3875  -21.3007 C   0  0  0  0  0  0  0  0  0  0  0  0
  -20.0415   37.6021  -20.8131 C   0  0  0  0  0  0  0  0  0  0  0  0
  -19.0755   38.3044  -21.4306 C   0  0  0  0  0  0  0  0  0  0  0  0
  -18.5667   39.5776  -21.0559 C   0  0  0  0  0  0  0  0  0  0  0  0
  -19.2204   40.4129  -19.6301 S   0  0  0  0  0  0  0  0  0  0  0  0
  -18.2658   41.9272  -19.3375 C   0  0  0  0  0  0  0  0  0  0  0  0
  -18.5255   42.9123  -20.4532 C   0  0  0  0  0  0  0  0  0  0  0  0
  -19.5473   42.8519  -21.1082 O   0  0  0  0  0  0  0  0  0  0  0  0
  -17.4925   43.8840  -20.6553 C   0  0  0  0  0  0  0  0  0  0  0  0
  -17.4024   44.9632  -21.4613 C   0  0  0  0  0  0  0  0  0  0  0  0
  -16.3129   45.7347  -21.4702 C   0  0  0  0  0  0  0  0  0  0  0  0
  -15.2678   45.3509  -20.5847 C   0  0  0  0  0  0  0  0  0  0  0  0
  -13.7090   46.1432  -20.3464 Cl  0  0  0  0  0  0  0  0  0  0  0  0
  -15.8968   43.9031  -19.7827 S   0  0  0  0  0  0  0  0  0  0  0  0
  -17.6043   40.1179  -21.7810 N   0  0  0  0  0  0  0  0  0  0  0  0
  -17.0332   39.5796  -22.8714 C   0  0  0  0  0  0  0  0  0  0  0  0
  -17.5060   38.3660  -23.2461 N   0  0  0  0  0  0  0  0  0  0  0  0
  -18.4867   37.7627  -22.5445 C   0  0  0  0  0  0  0  0  0  0  0  0
  -19.3348   36.2113  -22.7139 S   0  0  0  0  0  0  0  0  0  0  0  0
  1  2  1  0
  2  3  1  0
  3  4  2  0
  4  5  1  0
  5  6  2  0
  6  7  1  0
  7  8  1  0
  8  9  1  0
  9 10  2  0
  9 11  1  0
 11 12  2  0
 12 13  1  0
 13 14  2  0
 14 15  1  0
 14 16  1  0
  6 17  1  0
 17 18  2  0
 18 19  1  0
 19 20  2  0
 20 21  1  0
 21  3  1  0
 20  5  1  0
 16 11  1  0
M  END
$$$$
