
     RDKit          3D

 18 18  0  0  0  0  0  0  0  0999 V2000
  -12.5211    0.8395  -33.2075 C   0  0  0  0  0  0  0  0  0  0  0  0
  -13.4825    1.0989  -32.0551 C   0  0  0  0  0  0  0  0  0  0  0  0
  -13.8425    2.5909  -32.1967 C   0  0  0  0  0  0  0  0  0  0  0  0
  -12.8273    0.9013  -30.7352 C   0  0  0  0  0  0  0  0  0  0  0  0
  -14.7137    0.2848  -32.2467 C   0  0  0  0  0  0  0  0  0  0  0  0
  -15.9405    0.8560  -32.5636 C   0  0  0  0  0  0  0  0  0  0  0  0
  -17.0946    0.1305  -32.7433 C   0  0  0  0  0  0  0  0  0  0  0  0
  -18.3770    0.7999  -33.0520 C   0  0  0  0  0  0  0  0  0  0  0  0
  -18.9388    1.6875  -32.2926 C   0  0  0  0  0  0  0  0  0  0  0  0
  -20.2974    2.1385  -32.6482 C   0  0  0  0  0  0  0  0  0  0  0  0
  -21.3252    2.4699  -32.9005 N   0  0  0  0  0  0  0  0  0  0  0  0
  -18.2821    2.2150  -31.1541 C   0  0  0  0  0  0  0  0  0  0  0  0
  -17.7439    2.6342  -30.2084 N   0  0  0  0  0  0  0  0  0  0  0  0
  -17.0292   -1.2382  -32.6006 C   0  0  0  0  0  0  0  0  0  0  0  0
  -15.8179   -1.8643  -32.2821 C   0  0  0  0  0  0  0  0  0  0  0  0
  -15.7369   -3.7560  -32.0836 Br  0  0  0  0  0  0  0  0  0  0  0  0
  -14.6939   -1.0795  -32.1143 C   0  0  0  0  0  0  0  0  0  0  0  0
  -13.4991   -1.7373  -31.7979 O   0  0  0  0  0  0  0  0  0  0  0  0
  1  2  1  0
  2  3  1  0
  2  4  1  0
  2  5  1  0
  5  6  2  0
  6  7  1  0
  7  8  1  0
  8  9  2  3
  9 10  1  0
 10 11  3  0
  9 12  1  0
 12 13  3  0
  7 14  2  0
 14 15  1  0
 15 16  1  0
 15 17  2  0
 17 18  1  0
 17  5  1  0
M  END
$$$$
