
     RDKit          3D

 42 45  0  0  0  0  0  0  0  0999 V2000
  -10.7546   43.3744   -9.8108 C   0  0  0  0  0  0  0  0  0  0  0  0
   -9.4669   43.8908   -9.2267 C   0  0  0  0  0  0  0  0  0  0  0  0
   -8.6970   42.8040   -8.5059 C   0  0  0  0  0  0  0  0  0  0  0  0
   -9.9262   44.7555   -8.1800 O   0  0  0  0  0  0  0  0  0  0  0  0
   -8.6337   44.7106  -10.0986 C   0  0  0  0  0  0  0  0  0  0  0  0
   -8.4104   46.0650   -9.7710 C   0  0  0  0  0  0  0  0  0  0  0  0
   -7.6121   46.9080  -10.4715 C   0  0  0  0  0  0  0  0  0  0  0  0
   -6.9628   46.4292  -11.5864 C   0  0  0  0  0  0  0  0  0  0  0  0
   -7.1525   45.1165  -11.9425 C   0  0  0  0  0  0  0  0  0  0  0  0
   -7.9841   44.2436  -11.2125 C   0  0  0  0  0  0  0  0  0  0  0  0
   -8.1591   42.8981  -11.7171 C   0  0  0  0  0  0  0  0  0  0  0  0
   -9.2455   42.6919  -12.7393 C   0  0  0  0  0  0  0  0  0  0  0  0
   -9.3150   41.2312  -13.1362 C   0  0  1  0  0  0  0  0  0  0  0  0
  -10.6101   40.9333  -14.3706 S   0  0  0  0  0  0  0  0  0  0  0  0
  -10.1961   41.7517  -15.9136 C   0  0  0  0  0  0  0  0  0  0  0  0
  -11.3344   41.4305  -16.9031 C   0  0  0  0  0  0  0  0  0  0  0  0
  -11.5233   39.9671  -17.1775 C   0  0  0  0  0  0  0  0  0  0  0  0
  -12.5841   39.6018  -18.0961 C   0  0  0  0  0  0  0  0  0  0  0  0
  -13.3526   40.4009  -18.6523 O   0  0  0  0  0  0  0  0  0  0  0  0
  -12.7717   38.2478  -18.3914 O   0  0  0  0  0  1  0  0  0  0  0  0
  -11.6143   42.4135  -17.9661 C   0  0  0  0  0  0  0  0  0  0  0  0
  -12.5225   42.2848  -16.8102 C   0  0  0  0  0  0  0  0  0  0  0  0
   -8.0101   40.6832  -13.5715 C   0  0  0  0  0  0  0  0  0  0  0  0
   -7.2695   41.3921  -14.4978 C   0  0  0  0  0  0  0  0  0  0  0  0
   -6.0519   40.9049  -14.9351 C   0  0  0  0  0  0  0  0  0  0  0  0
   -5.5849   39.6905  -14.4271 C   0  0  0  0  0  0  0  0  0  0  0  0
   -6.3043   38.9709  -13.5066 C   0  0  0  0  0  0  0  0  0  0  0  0
   -5.8797   37.6964  -12.9395 C   0  0  0  0  0  0  0  0  0  0  0  0
   -4.7558   37.0922  -13.2481 C   0  0  0  0  0  0  0  0  0  0  0  0
   -4.3883   35.8015  -12.6352 C   0  0  0  0  0  0  0  0  0  0  0  0
   -3.1936   35.2334  -13.0008 C   0  0  0  0  0  0  0  0  0  0  0  0
   -2.7751   34.0090  -12.4682 C   0  0  0  0  0  0  0  0  0  0  0  0
   -3.5919   33.3729  -11.5591 C   0  0  0  0  0  0  0  0  0  0  0  0
   -3.2389   32.1524  -10.9886 C   0  0  0  0  0  0  0  0  0  0  0  0
   -4.0611   31.5234  -10.0798 C   0  0  0  0  0  0  0  0  0  0  0  0
   -5.2616   32.1158   -9.7263 C   0  0  0  0  0  0  0  0  0  0  0  0
   -6.2662   31.2809   -8.5732 Cl  0  0  0  0  0  0  0  0  0  0  0  0
   -5.5919   33.3173  -10.2987 C   0  0  0  0  0  0  0  0  0  0  0  0
   -4.7906   33.9704  -11.2103 C   0  0  0  0  0  0  0  0  0  0  0  0
   -5.1602   35.1645  -11.7528 N   0  0  0  0  0  0  0  0  0  0  0  0
   -7.5334   39.4885  -13.0828 C   0  0  0  0  0  0  0  0  0  0  0  0
   -7.9424   40.2918  -12.7706 Na  0  0  0  0  0 15  0  0  0  0  0  0
  1  2  1  0
  2  3  1  0
  2  4  1  0
  2  5  1  0
  5  6  2  0
  6  7  1  0
  7  8  2  0
  8  9  1  0
  9 10  2  0
 10 11  1  0
 11 12  1  0
 13 12  1  6
 13 14  1  0
 14 15  1  0
 15 16  1  0
 16 17  1  0
 17 18  1  0
 18 19  2  0
 18 20  1  0
 16 21  1  0
 21 22  1  0
 13 23  1  0
 23 24  2  0
 24 25  1  0
 25 26  2  0
 26 27  1  0
 27 28  1  0
 28 29  2  0
 29 30  1  0
 30 31  2  0
 31 32  1  0
 32 33  2  0
 33 34  1  0
 34 35  2  0
 35 36  1  0
 36 37  1  0
 36 38  2  0
 38 39  1  0
 39 40  2  0
 27 41  2  0
 10  5  1  0
 22 16  1  0
 41 23  1  0
 40 30  1  0
 39 33  1  0
M  CHG  2  20  -1  42   1
M  END
$$$$
