
     RDKit          3D

 18 18  0  0  0  0  0  0  0  0999 V2000
  -18.4270   42.0747  -21.3905 Br  0  0  0  0  0  0  0  0  0  0  0  0
  -21.0695   41.7125  -21.8909 C   0  0  0  0  0  0  0  0  0  0  0  0
  -20.1548   40.8903  -20.9688 C   0  0  0  0  0  0  0  0  0  0  0  0
  -20.4068   41.2909  -19.5181 C   0  0  0  0  0  0  0  0  0  0  0  0
  -20.5773   39.5404  -21.1003 N   0  0  0  0  0  0  0  0  0  0  0  0
  -19.8696   38.5635  -21.4744 C   0  0  0  0  0  0  0  0  0  0  0  0
  -20.3941   37.2337  -21.5740 N   0  0  0  0  0  0  0  0  0  0  0  0
  -18.5064   38.7685  -21.8122 N   0  0  0  0  0  0  0  0  0  0  0  0
  -17.9867   39.9633  -21.7361 C   0  0  0  0  0  0  0  0  0  0  0  0
  -16.6079   40.1472  -22.0820 N   0  0  0  0  0  0  0  0  0  0  0  0
  -18.7835   41.0600  -21.3155 N   0  0  0  0  0  0  0  0  0  0  0  0
  -18.1211   42.3228  -21.2666 C   0  0  0  0  0  0  0  0  0  0  0  0
  -17.4922   42.7277  -20.1222 C   0  0  0  0  0  0  0  0  0  0  0  0
  -16.8479   43.9719  -20.0966 C   0  0  0  0  0  0  0  0  0  0  0  0
  -16.8425   44.7901  -21.2135 C   0  0  0  0  0  0  0  0  0  0  0  0
  -15.9548   46.4948  -21.1652 Br  0  0  0  0  0  0  0  0  0  0  0  0
  -17.4831   44.3596  -22.3544 C   0  0  0  0  0  0  0  0  0  0  0  0
  -18.1282   43.1150  -22.3815 C   0  0  0  0  0  0  0  0  0  0  0  0
  2  3  1  0
  3  4  1  0
  3  5  1  0
  5  6  2  0
  6  7  1  0
  6  8  1  0
  8  9  2  0
  9 10  1  0
  9 11  1  0
 11 12  1  0
 12 13  2  0
 13 14  1  0
 14 15  2  0
 15 16  1  0
 15 17  1  0
 17 18  2  0
 11  3  1  0
 18 12  1  0
M  END
$$$$
