
     RDKit          3D

 20 22  0  0  0  0  0  0  0  0999 V2000
  -19.2944   41.7925  -21.9768 O   0  0  0  0  0  0  0  0  0  0  0  0
  -18.3231   41.0919  -21.6430 C   0  0  0  0  0  0  0  0  0  0  0  0
  -18.3857   39.5893  -21.6962 C   0  0  0  0  0  0  0  0  0  0  0  0
  -19.0312   39.0206  -20.4729 C   0  0  0  0  0  0  0  0  0  0  0  0
  -20.8287   38.8982  -20.8419 S   0  0  0  0  0  0  0  0  0  0  0  0
  -20.7645   37.2197  -21.4414 C   0  0  0  0  0  0  0  0  0  0  0  0
  -21.5080   36.3293  -22.0941 N   0  0  0  0  0  0  0  0  0  0  0  0
  -20.7584   35.2183  -22.1917 C   0  0  0  0  0  0  0  0  0  0  0  0
  -19.5857   35.4837  -21.5906 N   0  0  0  0  0  0  0  0  0  0  0  0
  -19.5762   36.7460  -21.1116 N   0  0  0  0  0  0  0  0  0  0  0  0
  -18.6967   37.5621  -20.4263 C   0  0  0  0  0  0  0  0  0  0  0  0
  -17.6520   37.2076  -19.7724 O   0  0  0  0  0  0  0  0  0  0  0  0
  -17.1340   41.7228  -21.2040 N   0  0  0  0  0  0  0  0  0  0  0  0
  -16.8622   43.1076  -21.2128 C   0  0  0  0  0  0  0  0  0  0  0  0
  -15.7427   43.5340  -20.4964 C   0  0  0  0  0  0  0  0  0  0  0  0
  -15.3760   44.8627  -20.4314 C   0  0  0  0  0  0  0  0  0  0  0  0
  -16.1032   45.8389  -21.0754 C   0  0  0  0  0  0  0  0  0  0  0  0
  -15.5884   47.6882  -20.9818 Br  0  0  0  0  0  0  0  0  0  0  0  0
  -17.2110   45.4388  -21.7874 C   0  0  0  0  0  0  0  0  0  0  0  0
  -17.5580   44.0899  -21.8359 C   0  0  0  0  0  0  0  0  0  0  0  0
  1  2  2  0
  2  3  1  0
  3  4  1  0
  4  5  1  0
  5  6  1  0
  6  7  2  0
  7  8  1  0
  8  9  2  0
  9 10  1  0
 10 11  1  0
 11 12  2  0
  2 13  1  0
 13 14  1  0
 14 15  2  0
 15 16  1  0
 16 17  2  0
 17 18  1  0
 17 19  1  0
 19 20  2  0
 11  4  1  0
 20 14  1  0
 10  6  1  0
M  END
$$$$
