
     RDKit          3D

 11 11  0  0  0  0  0  0  0  0999 V2000
  -20.8454   32.0360  -22.2164 O   0  0  0  0  0  0  0  0  0  0  0  0
  -19.4284   32.3449  -22.3521 B   0  0  0  0  0  0  0  0  0  0  0  0
  -18.4842   31.2406  -22.3317 O   0  0  0  0  0  0  0  0  0  0  0  0
  -18.9977   33.8343  -22.6571 C   0  0  0  0  0  0  0  0  0  0  0  0
  -19.5747   34.7366  -21.5862 C   0  0  0  0  0  0  0  0  0  0  0  0
  -19.1683   36.1547  -21.7936 C   0  0  0  0  0  0  0  0  0  0  0  0
  -20.0193   37.0828  -22.3661 C   0  0  0  0  0  0  0  0  0  0  0  0
  -19.6364   38.3933  -22.5548 C   0  0  0  0  0  0  0  0  0  0  0  0
  -18.3873   38.8370  -22.1808 C   0  0  0  0  0  0  0  0  0  0  0  0
  -17.5234   37.9282  -21.6082 C   0  0  0  0  0  0  0  0  0  0  0  0
  -17.9224   36.6196  -21.4263 C   0  0  0  0  0  0  0  0  0  0  0  0
  1  2  1  0
  2  3  1  0
  2  4  1  0
  4  5  1  0
  5  6  1  0
  6  7  2  0
  7  8  1  0
  8  9  2  0
  9 10  1  0
 10 11  2  0
 11  6  1  0
M  END
$$$$
