
     RDKit          3D

 24 27  0  0  0  0  0  0  0  0999 V2000
  -19.5962   45.6763  -21.0259 C   0  0  0  0  0  0  0  0  0  0  0  0
  -18.1357   45.2548  -21.2800 C   0  0  0  0  0  0  0  0  0  0  0  0
  -17.7204   46.0296  -22.5125 C   0  0  0  0  0  0  0  0  0  0  0  0
  -16.8144   47.1834  -22.2771 C   0  0  0  0  0  0  0  0  0  0  0  0
  -15.8388   47.0688  -21.1745 C   0  0  0  0  0  0  0  0  0  0  0  0
  -14.5075   47.2097  -21.5834 O   0  0  0  0  0  0  0  0  0  0  0  0
  -15.9365   45.7409  -20.4249 C   0  0  0  0  0  0  0  0  0  0  0  0
  -17.4048   45.6864  -20.0457 C   0  0  0  0  0  0  0  0  0  0  0  0
  -17.6540   44.7341  -18.9259 C   0  0  0  0  0  0  0  0  0  0  0  0
  -17.0049   43.4245  -19.3248 C   0  0  0  0  0  0  0  0  0  0  0  0
  -17.8053   42.8671  -20.4772 C   0  0  0  0  0  0  0  0  0  0  0  0
  -18.0551   43.7964  -21.5867 C   0  0  0  0  0  0  0  0  0  0  0  0
  -19.3074   43.3441  -22.3601 C   0  0  0  0  0  0  0  0  0  0  0  0
  -19.2113   41.8027  -22.3605 C   0  0  0  0  0  0  0  0  0  0  0  0
  -19.7518   41.3807  -21.0487 C   0  0  0  0  0  0  0  0  0  0  0  0
  -21.2344   41.8243  -21.0373 C   0  0  0  0  0  0  0  0  0  0  0  0
  -19.7316   39.9580  -20.6870 C   0  0  0  0  0  0  0  0  0  0  0  0
  -18.6650   39.1028  -21.1703 C   0  0  0  0  0  0  0  0  0  0  0  0
  -17.5349   39.2007  -20.7799 O   0  0  0  0  0  0  0  0  0  0  0  0
  -18.9693   38.0627  -22.1871 C   0  0  0  0  0  0  0  0  0  0  0  0
  -17.8593   37.7090  -22.9504 O   0  0  0  0  0  0  0  0  0  0  0  0
  -19.7625   40.0305  -19.1569 C   0  0  0  0  0  0  0  0  0  0  0  0
  -18.6798   41.1055  -18.9480 C   0  0  0  0  0  0  0  0  0  0  0  0
  -19.0453   42.1767  -19.9545 C   0  0  0  0  0  0  0  0  0  0  0  0
  1  2  1  0
  2  3  1  0
  3  4  1  0
  4  5  1  0
  5  6  1  0
  5  7  1  0
  7  8  1  0
  8  9  1  0
  9 10  1  0
 10 11  1  0
 11 12  1  0
 12 13  1  0
 13 14  1  0
 14 15  1  0
 15 16  1  0
 15 17  1  0
 17 18  1  0
 18 19  2  0
 18 20  1  0
 20 21  1  0
 17 22  1  0
 22 23  1  0
 23 24  1  0
  8  2  1  0
 24 11  1  0
 12  2  1  0
 24 15  1  0
M  END
$$$$
