
     RDKit          3D

 37 41  0  0  0  0  0  0  0  0999 V2000
  -31.1257   16.2381  -24.5315 C   0  0  0  0  0  0  0  0  0  0  0  0
  -30.7274   15.2247  -23.6581 O   0  0  0  0  0  0  0  0  0  0  0  0
  -29.4230   15.2584  -23.1377 C   0  0  0  0  0  0  0  0  0  0  0  0
  -28.6967   16.3758  -23.2433 N   0  0  0  0  0  0  0  0  0  0  0  0
  -27.4494   16.5292  -22.7913 C   0  0  0  0  0  0  0  0  0  0  0  0
  -26.7526   17.7244  -22.9377 C   0  0  0  0  0  0  0  0  0  0  0  0
  -25.4761   17.7952  -22.4448 C   0  0  0  0  0  0  0  0  0  0  0  0
  -24.9076   16.7081  -21.8236 C   0  0  0  0  0  0  0  0  0  0  0  0
  -23.1245   16.8140  -21.1378 Br  0  0  0  0  0  0  0  0  0  0  0  0
  -25.5850   15.5107  -21.6686 C   0  0  0  0  0  0  0  0  0  0  0  0
  -26.8755   15.4476  -22.1699 C   0  0  0  0  0  0  0  0  0  0  0  0
  -27.6044   14.2933  -22.0518 C   0  0  0  0  0  0  0  0  0  0  0  0
  -28.9106   14.1360  -22.5263 C   0  0  0  0  0  0  0  0  0  0  0  0
  -29.6622   12.8412  -22.3653 C   0  0  1  0  0  0  0  0  0  0  0  0
  -29.8198   12.1063  -23.6222 C   0  0  0  0  0  0  0  0  0  0  0  0
  -30.9989   11.5844  -24.0768 C   0  0  0  0  0  0  0  0  0  0  0  0
  -31.1354   10.8855  -25.2512 C   0  0  0  0  0  0  0  0  0  0  0  0
  -30.0321   10.6806  -26.0431 C   0  0  0  0  0  0  0  0  0  0  0  0
  -28.8209   11.1915  -25.6200 C   0  0  0  0  0  0  0  0  0  0  0  0
  -28.7325   11.8869  -24.4332 C   0  0  0  0  0  0  0  0  0  0  0  0
  -29.5512   12.1677  -21.0573 C   0  0  1  0  0  0  0  0  0  0  0  0
  -29.0972   10.8524  -21.2851 O   0  0  0  0  0  0  0  0  0  0  0  0
  -28.1273   12.6728  -20.5097 C   0  0  0  0  0  0  0  0  0  0  0  0
  -27.6918   11.9277  -19.3006 C   0  0  0  0  0  0  0  0  0  0  0  0
  -26.7107   10.9344  -19.7517 N   0  0  0  0  0  0  0  0  0  0  0  0
  -26.8096   10.6242  -21.1420 C   0  0  0  0  0  0  0  0  0  0  0  0
  -25.4087   11.5015  -19.4480 C   0  0  0  0  0  0  0  0  0  0  0  0
  -30.4133   12.4179  -19.9510 C   0  0  0  0  0  0  0  0  0  0  0  0
  -30.3293   13.5376  -19.1205 C   0  0  0  0  0  0  0  0  0  0  0  0
  -31.2235   13.8155  -18.1075 C   0  0  0  0  0  0  0  0  0  0  0  0
  -32.2651   12.9667  -17.8761 C   0  0  0  0  0  0  0  0  0  0  0  0
  -32.3999   11.8637  -18.6479 C   0  0  0  0  0  0  0  0  0  0  0  0
  -33.4548   11.0070  -18.3775 C   0  0  0  0  0  0  0  0  0  0  0  0
  -33.6528    9.8494  -19.1000 C   0  0  0  0  0  0  0  0  0  0  0  0
  -32.7710    9.5638  -20.1026 C   0  0  0  0  0  0  0  0  0  0  0  0
  -31.7115   10.4405  -20.3626 C   0  0  0  0  0  0  0  0  0  0  0  0
  -31.4931   11.6001  -19.6591 C   0  0  0  0  0  0  0  0  0  0  0  0
  1  2  1  0
  2  3  1  0
  3  4  2  0
  4  5  1  0
  5  6  2  0
  6  7  1  0
  7  8  2  0
  8  9  1  0
  8 10  1  0
 10 11  2  0
 11 12  1  0
 12 13  2  0
 14 13  1  6
 14 15  1  0
 15 16  2  0
 16 17  1  0
 17 18  2  0
 18 19  1  0
 19 20  2  0
 14 21  1  0
 21 22  1  6
 21 23  1  0
 23 24  1  0
 24 25  1  0
 25 26  1  0
 25 27  1  0
 21 28  1  0
 28 29  2  0
 29 30  1  0
 30 31  2  0
 31 32  1  0
 32 33  2  0
 33 34  1  0
 34 35  2  0
 35 36  1  0
 36 37  2  0
 13  3  1  0
 20 15  1  0
 37 28  1  0
 11  5  1  0
 37 32  1  0
M  END
$$$$
