
     RDKit          3D

 35 39  0  0  0  0  0  0  0  0999 V2000
  -17.0746   34.4034  -24.7372 C   0  0  0  0  0  0  0  0  0  0  0  0
  -18.4539   34.5128  -24.4956 O   0  0  0  0  0  0  0  0  0  0  0  0
  -18.6630   35.2856  -23.3244 C   0  0  1  0  0  0  0  0  0  0  0  0
  -20.0556   35.8305  -23.3566 C   0  0  0  0  0  0  0  0  0  0  0  0
  -20.9864   35.1242  -23.8422 O   0  0  0  0  0  0  0  0  0  0  0  0
  -20.3452   37.1040  -22.8619 N   0  0  0  0  0  0  0  0  0  0  0  0
  -21.6419   37.6039  -22.4637 C   0  0  0  0  0  0  0  0  0  0  0  0
  -21.3391   38.7198  -21.5309 C   0  0  0  0  0  0  0  0  0  0  0  0
  -21.8280   39.5522  -20.6152 N   0  0  0  0  0  0  0  0  0  0  0  0
  -20.8602   40.3666  -20.1646 N   0  0  0  0  0  0  0  0  0  0  0  0
  -19.7011   40.0815  -20.7837 C   0  0  0  0  0  0  0  0  0  0  0  0
  -18.4127   40.6935  -20.6186 N   0  0  0  0  0  0  0  0  0  0  0  0
  -18.0159   41.1820  -19.3714 C   0  0  0  0  0  0  0  0  0  0  0  0
  -18.3374   40.5351  -18.3451 O   0  0  0  0  0  0  0  0  0  0  0  0
  -17.2487   42.4042  -19.2143 C   0  0  0  0  0  0  0  0  0  0  0  0
  -17.4255   43.2840  -18.1697 C   0  0  0  0  0  0  0  0  0  0  0  0
  -16.7119   44.4516  -17.9946 C   0  0  0  0  0  0  0  0  0  0  0  0
  -15.7389   44.7655  -18.9452 C   0  0  0  0  0  0  0  0  0  0  0  0
  -14.9652   45.9284  -18.8192 N   0  0  0  0  0  0  0  0  0  0  0  0
  -13.6937   46.0869  -19.4879 C   0  0  0  0  0  0  0  0  0  0  0  0
  -12.7401   46.8905  -18.6354 C   0  0  0  0  0  0  0  0  0  0  0  0
  -13.0469   46.8055  -17.2320 N   0  0  0  0  0  0  0  0  0  0  0  0
  -12.5917   45.5753  -16.6291 C   0  0  0  0  0  0  0  0  0  0  0  0
  -14.3678   47.1743  -16.8756 C   0  0  0  0  0  0  0  0  0  0  0  0
  -15.3933   47.0253  -17.9958 C   0  0  0  0  0  0  0  0  0  0  0  0
  -15.5434   43.8942  -20.0050 C   0  0  0  0  0  0  0  0  0  0  0  0
  -16.2713   42.7388  -20.1509 C   0  0  0  0  0  0  0  0  0  0  0  0
  -20.0015   39.0345  -21.6535 C   0  0  0  0  0  0  0  0  0  0  0  0
  -19.3459   38.1613  -22.6584 C   0  0  0  0  0  0  0  0  0  0  0  0
  -18.4505   34.4001  -22.1426 C   0  0  0  0  0  0  0  0  0  0  0  0
  -19.1697   33.2290  -22.0066 C   0  0  0  0  0  0  0  0  0  0  0  0
  -18.9598   32.4052  -20.9245 C   0  0  0  0  0  0  0  0  0  0  0  0
  -18.0345   32.7196  -19.9521 C   0  0  0  0  0  0  0  0  0  0  0  0
  -17.3093   33.8740  -20.0640 C   0  0  0  0  0  0  0  0  0  0  0  0
  -17.5340   34.6990  -21.1678 C   0  0  0  0  0  0  0  0  0  0  0  0
  1  2  1  0
  3  2  1  6
  3  4  1  0
  4  5  2  0
  4  6  1  0
  6  7  1  0
  7  8  1  0
  8  9  1  0
  9 10  1  0
 10 11  2  0
 11 12  1  0
 12 13  1  0
 13 14  2  0
 13 15  1  0
 15 16  2  0
 16 17  1  0
 17 18  2  0
 18 19  1  0
 19 20  1  0
 20 21  1  0
 21 22  1  0
 22 23  1  0
 22 24  1  0
 24 25  1  0
 18 26  1  0
 26 27  2  0
 11 28  1  0
 28 29  1  0
  3 30  1  0
 30 31  2  0
 31 32  1  0
 32 33  2  0
 33 34  1  0
 34 35  2  0
 29  6  1  0
 35 30  1  0
 28  8  2  0
 27 15  1  0
 25 19  1  0
M  END
$$$$
