
     RDKit          3D

 20 23  0  0  0  0  0  0  0  0999 V2000
  -23.1137   41.7411  -19.3665 O   0  0  0  0  0  0  0  0  0  0  0  0
  -21.9335   41.9357  -19.7710 C   0  0  0  0  0  0  0  0  0  0  0  0
  -21.0177   42.9087  -19.1302 C   0  0  0  0  0  0  0  0  0  0  0  0
  -19.8195   42.7647  -19.9375 N   0  0  0  0  0  0  0  0  0  0  0  0
  -20.0423   41.7876  -20.9533 C   0  0  0  0  0  0  0  0  0  0  0  0
  -21.2481   41.3185  -20.8539 N   0  0  0  0  0  0  0  0  0  0  0  0
  -18.8403   41.6790  -21.7215 N   0  0  0  0  0  0  0  0  0  0  0  0
  -18.5589   40.8423  -22.8441 C   0  0  0  0  0  0  0  0  0  0  0  0
  -18.5968   39.3989  -22.5224 C   0  0  0  0  0  0  0  0  0  0  0  0
  -17.4245   38.6772  -22.4967 C   0  0  0  0  0  0  0  0  0  0  0  0
  -17.3947   37.3235  -22.2029 C   0  0  0  0  0  0  0  0  0  0  0  0
  -18.5566   36.6373  -21.9207 C   0  0  0  0  0  0  0  0  0  0  0  0
  -19.7393   37.3464  -21.9425 C   0  0  0  0  0  0  0  0  0  0  0  0
  -19.7538   38.7062  -22.2393 C   0  0  0  0  0  0  0  0  0  0  0  0
  -17.9095   42.5936  -21.1567 C   0  0  0  0  0  0  0  0  0  0  0  0
  -16.6043   42.9402  -21.4515 C   0  0  0  0  0  0  0  0  0  0  0  0
  -15.8975   43.8805  -20.7372 C   0  0  0  0  0  0  0  0  0  0  0  0
  -16.5148   44.5092  -19.6774 C   0  0  0  0  0  0  0  0  0  0  0  0
  -17.8113   44.1849  -19.3613 C   0  0  0  0  0  0  0  0  0  0  0  0
  -18.5046   43.2346  -20.0944 C   0  0  0  0  0  0  0  0  0  0  0  0
  1  2  2  0
  2  3  1  0
  3  4  1  0
  4  5  1  0
  5  6  2  0
  5  7  1  0
  7  8  1  0
  8  9  1  0
  9 10  2  0
 10 11  1  0
 11 12  2  0
 12 13  1  0
 13 14  2  0
  7 15  1  0
 15 16  2  0
 16 17  1  0
 17 18  2  0
 18 19  1  0
 19 20  2  0
  6  2  1  0
 14  9  1  0
 20 15  1  0
 20  4  1  0
M  END
$$$$
