
     RDKit          3D

 23 24  0  0  0  0  0  0  0  0999 V2000
  -21.1178   21.2827  -41.0189 C   0  0  0  0  0  0  0  0  0  0  0  0
  -20.5989   21.1931  -42.4314 C   0  0  0  0  0  0  0  0  0  0  0  0
  -21.6823   20.6368  -43.3314 C   0  0  0  0  0  0  0  0  0  0  0  0
  -19.4046   20.2773  -42.5586 C   0  0  0  0  0  0  0  0  0  0  0  0
  -18.4186   20.7573  -41.5002 C   0  0  0  0  0  0  0  0  0  0  0  0
  -17.1657   20.0125  -41.6889 N   0  0  0  0  0  0  0  0  0  0  0  0
  -16.9676   18.7073  -41.1950 C   0  0  0  0  0  0  0  0  0  0  0  0
  -17.7412   17.7910  -41.5876 O   0  0  0  0  0  0  0  0  0  0  0  0
  -15.8803   18.4117  -40.2387 C   0  0  0  0  0  0  0  0  0  0  0  0
  -14.7823   18.9096  -40.4464 O   0  0  0  0  0  0  0  0  0  0  0  0
  -16.1322   17.5773  -39.1301 N   0  0  0  0  0  0  0  0  0  0  0  0
  -15.1758   16.8862  -38.3707 C   0  0  0  0  0  0  0  0  0  0  0  0
  -13.8420   17.3219  -38.3798 C   0  0  0  0  0  0  0  0  0  0  0  0
  -12.8496   16.7107  -37.6727 C   0  0  0  0  0  0  0  0  0  0  0  0
  -13.1814   15.6042  -36.9086 C   0  0  0  0  0  0  0  0  0  0  0  0
  -11.9622   14.7675  -35.9743 Cl  0  0  0  0  0  0  0  0  0  0  0  0
  -14.4652   15.1396  -36.8653 C   0  0  0  0  0  0  0  0  0  0  0  0
  -15.4545   15.8013  -37.6102 C   0  0  0  0  0  0  0  0  0  0  0  0
  -18.2142   22.2232  -41.5044 C   0  0  0  0  0  0  0  0  0  0  0  0
  -18.9912   23.0011  -42.4939 C   0  0  0  0  0  0  0  0  0  0  0  0
  -19.2548   24.4090  -41.9421 C   0  0  0  0  0  0  0  0  0  0  0  0
  -18.1373   23.1928  -43.7327 C   0  0  0  0  0  0  0  0  0  0  0  0
  -20.2380   22.4806  -42.9032 N   0  0  0  0  0  0  0  0  0  0  0  0
  1  2  1  0
  2  3  1  0
  2  4  1  0
  4  5  1  0
  5  6  1  0
  6  7  1  0
  7  8  2  0
  7  9  1  0
  9 10  2  0
  9 11  1  0
 11 12  1  0
 12 13  2  0
 13 14  1  0
 14 15  2  0
 15 16  1  0
 15 17  1  0
 17 18  2  0
  5 19  1  0
 19 20  1  0
 20 21  1  0
 20 22  1  0
 20 23  1  0
 23  2  1  0
 18 12  1  0
M  END
$$$$
