
     RDKit          3D

 17 19  0  0  0  0  0  0  0  0999 V2000
  -21.1367   14.9884  -31.1125 C   0  0  0  0  0  0  0  0  0  0  0  0
  -19.7954   15.1006  -30.6797 O   0  0  0  0  0  0  0  0  0  0  0  0
  -19.5434   14.9838  -29.3216 C   0  0  0  0  0  0  0  0  0  0  0  0
  -20.4252   15.2017  -28.4517 O   0  0  0  0  0  0  0  0  0  0  0  0
  -18.2081   14.5930  -28.8474 C   0  0  0  0  0  0  0  0  0  0  0  0
  -17.1783   14.3201  -29.7213 C   0  0  0  0  0  0  0  0  0  0  0  0
  -15.9423   13.9570  -29.2235 C   0  0  0  0  0  0  0  0  0  0  0  0
  -15.6954   13.8554  -27.8637 C   0  0  0  0  0  0  0  0  0  0  0  0
  -16.7584   14.1386  -27.0285 C   0  0  0  0  0  0  0  0  0  0  0  0
  -17.9573   14.4912  -27.5266 N   0  0  0  0  0  0  0  0  0  0  0  0
  -14.4158   13.4870  -27.6749 N   0  0  0  0  0  0  0  0  0  0  0  0
  -13.7879   13.3356  -28.8579 C   0  0  0  0  0  0  0  0  0  0  0  0
  -12.5332   12.9882  -29.2739 C   0  0  0  0  0  0  0  0  0  0  0  0
  -12.2332   12.9337  -30.6133 C   0  0  0  0  0  0  0  0  0  0  0  0
  -13.1572   13.2194  -31.6025 C   0  0  0  0  0  0  0  0  0  0  0  0
  -14.4224   13.5696  -31.1797 C   0  0  0  0  0  0  0  0  0  0  0  0
  -14.7392   13.6285  -29.8228 C   0  0  0  0  0  0  0  0  0  0  0  0
  1  2  1  0
  2  3  1  0
  3  4  2  0
  3  5  1  0
  5  6  2  0
  6  7  1  0
  7  8  2  0
  8  9  1  0
  9 10  2  0
  8 11  1  0
 11 12  1  0
 12 13  2  0
 13 14  1  0
 14 15  2  0
 15 16  1  0
 16 17  2  0
 10  5  1  0
 17 12  1  0
 17  7  1  0
M  END
$$$$
