
     RDKit          3D

 24 25  0  0  0  0  0  0  0  0999 V2000
  -19.4068   18.9271  -30.5009 O   0  0  0  0  0  0  0  0  0  0  0  0
  -19.8785   17.8507  -31.0165 C   0  0  0  0  0  0  0  0  0  0  0  0
  -20.8408   18.0435  -31.9574 O   0  0  0  0  0  0  0  0  0  0  0  0
  -19.3645   16.5488  -30.5759 C   0  0  0  0  0  0  0  0  0  0  0  0
  -17.9941   16.4842  -30.2904 C   0  0  0  0  0  0  0  0  0  0  0  0
  -17.3891   15.3250  -29.9327 C   0  0  0  0  0  0  0  0  0  0  0  0
  -16.1285   15.1008  -29.6329 O   0  0  0  0  0  0  0  0  0  0  0  0
  -15.3404   14.3814  -28.8381 C   0  0  0  0  0  0  0  0  0  0  0  0
  -15.3880   14.2762  -27.4659 C   0  0  0  0  0  0  0  0  0  0  0  0
  -14.5062   13.4936  -26.7292 C   0  0  0  0  0  0  0  0  0  0  0  0
  -13.5169   12.7637  -27.3334 C   0  0  0  0  0  0  0  0  0  0  0  0
  -12.5713   11.9275  -26.5556 C   0  0  0  0  0  0  0  0  0  0  0  0
  -11.9341   12.6426  -25.5580 F   0  0  0  0  0  0  0  0  0  0  0  0
  -13.2395   10.8830  -25.9085 F   0  0  0  0  0  0  0  0  0  0  0  0
  -11.6541   11.3317  -27.3953 F   0  0  0  0  0  0  0  0  0  0  0  0
  -13.4525   12.8544  -28.7061 C   0  0  0  0  0  0  0  0  0  0  0  0
  -14.3016   13.6119  -29.4481 C   0  0  0  0  0  0  0  0  0  0  0  0
  -14.1738   13.6919  -31.1857 Cl  0  0  0  0  0  0  0  0  0  0  0  0
  -18.2334   14.1821  -29.8683 C   0  0  0  0  0  0  0  0  0  0  0  0
  -19.5444   14.2487  -30.1419 C   0  0  0  0  0  0  0  0  0  0  0  0
  -20.1698   15.4596  -30.5117 C   0  0  0  0  0  0  0  0  0  0  0  0
  -21.5590   15.4058  -30.7698 N   0  0  0  0  0  4  0  0  0  0  0  0
  -21.9572   14.4540  -31.5134 O   0  0  0  0  0  0  0  0  0  0  0  0
  -22.4850   16.2428  -30.3255 O   0  0  0  0  0  1  0  0  0  0  0  0
  1  2  2  0
  2  3  1  0
  2  4  1  0
  4  5  2  0
  5  6  1  0
  6  7  1  0
  7  8  1  0
  8  9  2  0
  9 10  1  0
 10 11  2  0
 11 12  1  0
 12 13  1  0
 12 14  1  0
 12 15  1  0
 11 16  1  0
 16 17  2  0
 17 18  1  0
  6 19  2  0
 19 20  1  0
 20 21  2  0
 21 22  1  0
 22 23  2  0
 22 24  1  0
 21  4  1  0
 17  8  1  0
M  CHG  2  22   1  24  -1
M  END
$$$$
