
     RDKit          3D

 30 33  0  0  0  0  0  0  0  0999 V2000
   -9.8285   38.8595  -18.3319 C   0  0  0  0  0  0  0  0  0  0  0  0
  -10.7105   39.9136  -18.9529 C   0  0  0  0  0  0  0  0  0  0  0  0
  -11.0376   41.0026  -17.9467 C   0  0  0  0  0  0  0  0  0  0  0  0
  -11.8093   42.1413  -18.5881 C   0  0  0  0  0  0  0  0  0  0  0  0
  -12.1325   43.1643  -17.5620 C   0  0  0  0  0  0  0  0  0  0  0  0
  -12.0510   42.9422  -16.2179 N   0  0  0  0  0  0  0  0  0  0  0  0
  -12.4081   44.0331  -15.5464 C   0  0  0  0  0  0  0  0  0  0  0  0
  -12.4612   44.2273  -13.8191 Cl  0  0  0  0  0  0  0  0  0  0  0  0
  -12.7357   45.0045  -16.4670 C   0  0  0  0  0  0  0  0  0  0  0  0
  -13.2072   46.3714  -16.1085 C   0  0  0  0  0  0  0  0  0  0  0  0
  -12.6640   47.2205  -17.1077 O   0  0  0  0  0  0  0  0  0  0  0  0
  -12.5528   44.4358  -17.6840 N   0  0  0  0  0  0  0  0  0  0  0  0
  -12.7572   45.1380  -18.9143 C   0  0  0  0  0  0  0  0  0  0  0  0
  -14.1262   45.0858  -19.4618 C   0  0  0  0  0  0  0  0  0  0  0  0
  -15.1075   44.3938  -18.7686 C   0  0  0  0  0  0  0  0  0  0  0  0
  -16.3955   44.3084  -19.2573 C   0  0  0  0  0  0  0  0  0  0  0  0
  -16.7758   44.8934  -20.4385 C   0  0  0  0  0  0  0  0  0  0  0  0
  -18.1126   44.7960  -20.9730 C   0  0  0  0  0  0  0  0  0  0  0  0
  -18.8066   45.9828  -21.2452 C   0  0  0  0  0  0  0  0  0  0  0  0
  -20.0869   45.9780  -21.7413 C   0  0  0  0  0  0  0  0  0  0  0  0
  -20.6684   44.7464  -21.9633 C   0  0  0  0  0  0  0  0  0  0  0  0
  -20.0183   43.5628  -21.7085 C   0  0  0  0  0  0  0  0  0  0  0  0
  -18.7069   43.5711  -21.2006 C   0  0  0  0  0  0  0  0  0  0  0  0
  -18.0418   42.3020  -20.9428 C   0  0  0  0  0  0  0  0  0  0  0  0
  -16.7886   41.9492  -21.2146 N   0  0  0  0  0  0  0  0  0  0  0  0
  -16.5850   40.7012  -20.8087 N   0  0  0  0  0  0  0  0  0  0  0  0
  -17.7189   40.2391  -20.2678 N   0  0  0  0  0  0  0  0  0  0  0  0
  -18.6015   41.2346  -20.3587 N   0  0  0  0  0  0  0  0  0  0  0  0
  -15.7990   45.5785  -21.1213 C   0  0  0  0  0  0  0  0  0  0  0  0
  -14.4858   45.6793  -20.6462 C   0  0  0  0  0  0  0  0  0  0  0  0
  1  2  1  0
  2  3  1  0
  3  4  1  0
  4  5  1  0
  5  6  2  0
  6  7  1  0
  7  8  1  0
  7  9  2  0
  9 10  1  0
 10 11  1  0
  9 12  1  0
 12 13  1  0
 13 14  1  0
 14 15  2  0
 15 16  1  0
 16 17  2  0
 17 18  1  0
 18 19  2  0
 19 20  1  0
 20 21  2  0
 21 22  1  0
 22 23  2  0
 23 24  1  0
 24 25  1  0
 25 26  2  0
 26 27  1  0
 27 28  1  0
 17 29  1  0
 29 30  2  0
 12  5  1  0
 30 14  1  0
 23 18  1  0
 28 24  2  0
M  END
$$$$
