
     RDKit          3D

 25 28  0  0  0  0  0  0  0  0999 V2000
  -21.3630   35.7236  -26.2422 O   0  0  0  0  0  0  0  0  0  0  0  0
  -21.6168   36.4903  -25.2724 C   0  0  0  0  0  0  0  0  0  0  0  0
  -22.9048   37.0721  -25.2177 N   0  0  0  0  0  0  0  0  0  0  0  0
  -23.2093   38.4179  -25.5787 C   0  0  0  0  0  0  0  0  0  0  0  0
  -23.0593   38.7533  -27.0144 C   0  0  0  0  0  0  0  0  0  0  0  0
  -21.9007   39.1624  -27.6682 C   0  0  0  0  0  0  0  0  0  0  0  0
  -22.2175   39.3625  -28.9948 C   0  0  0  0  0  0  0  0  0  0  0  0
  -23.5672   39.0667  -29.1028 C   0  0  0  0  0  0  0  0  0  0  0  0
  -24.0027   38.7215  -27.9322 O   0  0  0  0  0  0  0  0  0  0  0  0
  -20.6021   36.7460  -24.2588 C   0  0  0  0  0  0  0  0  0  0  0  0
  -20.0941   38.0115  -24.0635 C   0  0  0  0  0  0  0  0  0  0  0  0
  -19.1423   38.3090  -23.1362 C   0  0  0  0  0  0  0  0  0  0  0  0
  -18.5875   39.6384  -22.9238 C   0  0  0  0  0  0  0  0  0  0  0  0
  -19.3141   40.7753  -23.1067 C   0  0  0  0  0  0  0  0  0  0  0  0
  -18.7492   42.0219  -22.9093 C   0  0  0  0  0  0  0  0  0  0  0  0
  -17.4188   42.1724  -22.5169 C   0  0  0  0  0  0  0  0  0  0  0  0
  -16.6802   41.0171  -22.3311 C   0  0  0  0  0  0  0  0  0  0  0  0
  -17.2727   39.7892  -22.5355 C   0  0  0  0  0  0  0  0  0  0  0  0
  -18.6991   37.2776  -22.3862 N   0  0  0  0  0  0  0  0  0  0  0  0
  -19.1578   36.0141  -22.5280 C   0  0  0  0  0  0  0  0  0  0  0  0
  -18.6633   35.0057  -21.7307 C   0  0  0  0  0  0  0  0  0  0  0  0
  -19.1180   33.7238  -21.8652 C   0  0  0  0  0  0  0  0  0  0  0  0
  -20.0811   33.4022  -22.7984 C   0  0  0  0  0  0  0  0  0  0  0  0
  -20.5604   34.4190  -23.5822 C   0  0  0  0  0  0  0  0  0  0  0  0
  -20.1330   35.7269  -23.4836 C   0  0  0  0  0  0  0  0  0  0  0  0
  1  2  2  0
  2  3  1  0
  3  4  1  0
  4  5  1  0
  5  6  2  0
  6  7  1  0
  7  8  2  0
  8  9  1  0
  2 10  1  0
 10 11  2  0
 11 12  1  0
 12 13  1  0
 13 14  2  0
 14 15  1  0
 15 16  2  0
 16 17  1  0
 17 18  2  0
 12 19  2  0
 19 20  1  0
 20 21  2  0
 21 22  1  0
 22 23  2  0
 23 24  1  0
 24 25  2  0
  9  5  1  0
 25 10  1  0
 18 13  1  0
 25 20  1  0
M  END
$$$$
