
     RDKit          3D

 22 24  0  0  0  0  0  0  0  0999 V2000
  -20.0182   42.1005  -17.5100 O   0  0  0  0  0  0  0  0  0  0  0  0
  -19.4466   41.2502  -18.2206 C   0  0  0  0  0  0  0  0  0  0  0  0
  -18.6431   40.3067  -17.6126 O   0  0  0  0  0  0  0  0  0  0  0  0
  -19.6536   41.2919  -19.6629 C   0  0  0  0  0  0  0  0  0  0  0  0
  -20.4935   42.2214  -20.2365 C   0  0  0  0  0  0  0  0  0  0  0  0
  -20.6849   42.2551  -21.6036 C   0  0  0  0  0  0  0  0  0  0  0  0
  -20.0293   41.3488  -22.4107 C   0  0  0  0  0  0  0  0  0  0  0  0
  -19.1770   40.4025  -21.8509 C   0  0  0  0  0  0  0  0  0  0  0  0
  -18.3221   39.2306  -22.8352 S   0  0  0  0  0  6  0  0  0  0  0  0
  -18.5429   39.6407  -24.2750 O   0  0  0  0  0  0  0  0  0  0  0  0
  -16.8528   39.2909  -22.5617 O   0  0  0  0  0  0  0  0  0  0  0  0
  -19.0082   37.7102  -22.5954 N   0  0  0  0  0  0  0  0  0  0  0  0
  -19.4997   37.0959  -23.7854 C   0  0  0  0  0  0  0  0  0  0  0  0
  -20.2007   35.8041  -23.6035 C   0  0  0  0  0  0  0  0  0  0  0  0
  -19.5087   34.9036  -22.6631 C   0  0  0  0  0  0  0  0  0  0  0  0
  -19.7067   33.5448  -22.7244 C   0  0  0  0  0  0  0  0  0  0  0  0
  -19.0640   32.6878  -21.8485 C   0  0  0  0  0  0  0  0  0  0  0  0
  -18.2096   33.2282  -20.8999 C   0  0  0  0  0  0  0  0  0  0  0  0
  -18.0197   34.6013  -20.8501 C   0  0  0  0  0  0  0  0  0  0  0  0
  -18.6665   35.4555  -21.7306 C   0  0  0  0  0  0  0  0  0  0  0  0
  -18.4264   36.8885  -21.6285 C   0  0  0  0  0  0  0  0  0  0  0  0
  -18.9997   40.3855  -20.4860 C   0  0  0  0  0  0  0  0  0  0  0  0
  1  2  2  0
  2  3  1  0
  2  4  1  0
  4  5  2  0
  5  6  1  0
  6  7  2  0
  7  8  1  0
  8  9  1  0
  9 10  2  0
  9 11  2  0
  9 12  1  0
 12 13  1  0
 13 14  1  0
 14 15  1  0
 15 16  2  0
 16 17  1  0
 17 18  2  0
 18 19  1  0
 19 20  2  0
 20 21  1  0
  8 22  2  0
 22  4  1  0
 21 12  1  0
 20 15  1  0
M  END
$$$$
