
     RDKit          3D

 27 30  0  0  0  0  0  0  0  0999 V2000
  -19.9539   37.6119  -21.4402 C   0  0  0  0  0  0  0  0  0  0  0  0
  -19.1583   37.8878  -20.3138 O   0  0  0  0  0  0  0  0  0  0  0  0
  -18.8681   39.2151  -19.9852 C   0  0  0  0  0  0  0  0  0  0  0  0
  -18.4621   39.5271  -18.7303 N   0  0  0  0  0  0  0  0  0  0  0  0
  -18.1704   40.7862  -18.3597 C   0  0  0  0  0  0  0  0  0  0  0  0
  -18.2934   41.7850  -19.3023 C   0  0  0  0  0  0  0  0  0  0  0  0
  -18.7096   41.4975  -20.6065 C   0  0  0  0  0  0  0  0  0  0  0  0
  -18.8233   42.5864  -21.5694 C   0  0  0  0  0  0  0  0  0  0  0  0
  -17.8819   43.5741  -21.7999 C   0  0  0  0  0  0  0  0  0  0  0  0
  -16.5867   43.7367  -21.1416 C   0  0  0  0  0  0  0  0  0  0  0  0
  -16.1891   44.9303  -20.5725 C   0  0  0  0  0  0  0  0  0  0  0  0
  -14.9602   45.0720  -19.9532 C   0  0  0  0  0  0  0  0  0  0  0  0
  -14.0719   44.0197  -19.8766 C   0  0  0  0  0  0  0  0  0  0  0  0
  -12.8664   44.1720  -19.2652 F   0  0  0  0  0  0  0  0  0  0  0  0
  -14.4636   42.8251  -20.4434 C   0  0  0  0  0  0  0  0  0  0  0  0
  -15.6909   42.6896  -21.0600 C   0  0  0  0  0  0  0  0  0  0  0  0
  -18.3838   44.3830  -22.7683 N   0  0  0  0  0  0  0  0  0  0  0  0
  -19.5908   43.9405  -23.1463 C   0  0  0  0  0  0  0  0  0  0  0  0
  -19.8540   42.8511  -22.4171 N   0  0  0  0  0  0  0  0  0  0  0  0
  -21.0679   42.0333  -22.4906 C   0  0  1  0  0  0  0  0  0  0  0  0
  -22.1710   42.7359  -21.7618 C   0  0  0  0  0  0  0  0  0  0  0  0
  -22.9973   43.4859  -22.7927 C   0  0  0  0  0  0  0  0  0  0  0  0
  -23.7883   42.4401  -23.5543 C   0  0  2  0  0  0  0  0  0  0  0  0
  -24.5605   41.7607  -22.6047 O   0  0  0  0  0  0  0  0  0  0  0  0
  -22.8247   41.4984  -24.2115 C   0  0  0  0  0  0  0  0  0  0  0  0
  -21.3820   41.8383  -23.9429 C   0  0  0  0  0  0  0  0  0  0  0  0
  -18.9781   40.2098  -20.8805 N   0  0  0  0  0  0  0  0  0  0  0  0
  1  2  1  0
  2  3  1  0
  3  4  2  0
  4  5  1  0
  5  6  2  0
  6  7  1  0
  7  8  1  0
  8  9  2  0
  9 10  1  0
 10 11  2  0
 11 12  1  0
 12 13  2  0
 13 14  1  0
 13 15  1  0
 15 16  2  0
  9 17  1  0
 17 18  2  0
 18 19  1  0
 20 19  1  6
 20 21  1  0
 21 22  1  0
 22 23  1  0
 23 24  1  1
 23 25  1  0
 25 26  1  0
  7 27  2  0
 27  3  1  0
 19  8  1  0
 26 20  1  0
 16 10  1  0
M  END
$$$$
