
     RDKit          3D

 39 44  0  0  0  0  0  0  0  0999 V2000
  -20.8602   43.9521  -23.8484 O   0  0  0  0  0  0  0  0  0  0  0  0
  -20.4345   44.7807  -23.0026 C   0  0  0  0  0  0  0  0  0  0  0  0
  -19.1577   44.5346  -22.3579 C   0  0  0  0  0  0  0  0  0  0  0  0
  -18.0735   45.3321  -22.3881 C   0  0  0  0  0  0  0  0  0  0  0  0
  -16.9113   44.9741  -21.7182 C   0  0  0  0  0  0  0  0  0  0  0  0
  -16.8305   43.7837  -20.9948 C   0  0  0  0  0  0  0  0  0  0  0  0
  -15.6464   43.2832  -20.3623 C   0  0  0  0  0  0  0  0  0  0  0  0
  -15.4617   42.0029  -20.3868 O   0  0  0  0  0  0  0  0  0  0  0  0
  -14.6713   44.0090  -19.7217 N   0  0  0  0  0  0  0  0  0  0  0  0
  -13.4458   43.5624  -19.1702 C   0  0  0  0  0  0  0  0  0  0  0  0
  -13.4490   43.6671  -17.6769 C   0  0  0  0  0  0  0  0  0  0  0  0
  -14.2012   44.8267  -17.1240 C   0  0  0  0  0  0  0  0  0  0  0  0
  -13.2829   45.6201  -16.3198 N   0  0  0  0  0  0  0  0  0  0  0  0
  -13.8128   46.8224  -15.8298 C   0  0  0  0  0  0  0  0  0  0  0  0
  -13.0910   47.0831  -14.5345 C   0  0  0  0  0  0  0  0  0  0  0  0
  -12.5769   45.7178  -14.1153 C   0  0  0  0  0  0  0  0  0  0  0  0
  -12.4889   44.9195  -15.4037 C   0  0  0  0  0  0  0  0  0  0  0  0
  -14.9607   45.6888  -18.0384 C   0  0  0  0  0  0  0  0  0  0  0  0
  -14.8305   45.4812  -19.5023 C   0  0  0  0  0  0  0  0  0  0  0  0
  -17.9537   42.9495  -20.9584 C   0  0  0  0  0  0  0  0  0  0  0  0
  -17.9327   41.7464  -20.2353 N   0  0  0  0  0  0  0  0  0  0  0  0
  -19.0060   40.8549  -20.1377 C   0  0  0  0  0  0  0  0  0  0  0  0
  -18.9828   39.8185  -19.2420 C   0  0  0  0  0  0  0  0  0  0  0  0
  -20.0263   38.9246  -19.1088 C   0  0  0  0  0  0  0  0  0  0  0  0
  -21.1456   39.0599  -19.8971 C   0  0  0  0  0  0  0  0  0  0  0  0
  -21.1912   40.0948  -20.8060 C   0  0  0  0  0  0  0  0  0  0  0  0
  -20.1231   40.9923  -20.9287 C   0  0  0  0  0  0  0  0  0  0  0  0
  -19.0756   43.3385  -21.6320 C   0  0  0  0  0  0  0  0  0  0  0  0
  -21.1662   45.9452  -22.6653 N   0  0  0  0  0  0  0  0  0  0  0  0
  -22.1698   46.5530  -23.4716 C   0  0  0  0  0  0  0  0  0  0  0  0
  -22.1622   48.0559  -23.5050 C   0  0  0  0  0  0  0  0  0  0  0  0
  -21.6937   48.7188  -22.2598 C   0  0  0  0  0  0  0  0  0  0  0  0
  -22.6292   48.9465  -21.2454 N   0  0  0  0  0  0  0  0  0  0  0  0
  -22.1468   49.5269  -20.0314 C   0  0  0  0  0  0  0  0  0  0  0  0
  -23.1099   50.6271  -19.6177 C   0  0  0  0  0  0  0  0  0  0  0  0
  -24.0347   50.8152  -20.7847 C   0  0  0  0  0  0  0  0  0  0  0  0
  -23.8857   49.4787  -21.5226 C   0  0  0  0  0  0  0  0  0  0  0  0
  -20.4912   47.9811  -21.6533 C   0  0  0  0  0  0  0  0  0  0  0  0
  -20.8604   46.5488  -21.3693 C   0  0  0  0  0  0  0  0  0  0  0  0
  1  2  2  0
  2  3  1  0
  3  4  2  0
  4  5  1  0
  5  6  2  0
  6  7  1  0
  7  8  2  0
  7  9  1  0
  9 10  1  0
 10 11  1  0
 11 12  1  0
 12 13  1  0
 13 14  1  0
 14 15  1  0
 15 16  1  0
 16 17  1  0
 12 18  1  0
 18 19  1  0
  6 20  1  0
 20 21  1  0
 21 22  1  0
 22 23  2  0
 23 24  1  0
 24 25  2  0
 25 26  1  0
 26 27  2  0
 20 28  2  0
  2 29  1  0
 29 30  1  0
 30 31  1  0
 31 32  1  0
 32 33  1  0
 33 34  1  0
 34 35  1  0
 35 36  1  0
 36 37  1  0
 32 38  1  0
 38 39  1  0
 28  3  1  0
 39 29  1  0
 19  9  1  0
 27 22  1  0
 37 33  1  0
 17 13  1  0
M  END
$$$$
