
     RDKit          3D

 21 23  0  0  0  0  0  0  0  0999 V2000
   -8.9834   11.4119  -27.2252 C   0  0  0  0  0  0  0  0  0  0  0  0
  -10.2600   11.9806  -27.7344 C   0  0  0  0  0  0  0  0  0  0  0  0
  -11.4768   11.4339  -27.3868 C   0  0  0  0  0  0  0  0  0  0  0  0
  -12.6784   11.9238  -27.8320 C   0  0  0  0  0  0  0  0  0  0  0  0
  -12.7245   13.0347  -28.6853 C   0  0  0  0  0  0  0  0  0  0  0  0
  -13.9962   13.5751  -29.1280 C   0  0  0  0  0  0  0  0  0  0  0  0
  -14.2129   14.3870  -30.1726 N   0  0  0  0  0  0  0  0  0  0  0  0
  -15.4696   14.7147  -30.2949 N   0  0  0  0  0  0  0  0  0  0  0  0
  -16.1035   15.5708  -31.2940 C   0  0  0  0  0  0  0  0  0  0  0  0
  -16.6128   16.8001  -30.5784 C   0  0  0  0  0  0  0  0  0  0  0  0
  -15.0741   16.0085  -32.2901 C   0  0  0  0  0  0  0  0  0  0  0  0
  -17.2786   14.8817  -31.9255 C   0  0  0  0  0  0  0  0  0  0  0  0
  -16.1344   14.1050  -29.2969 C   0  0  0  0  0  0  0  0  0  0  0  0
  -17.4170   14.0674  -28.9033 N   0  0  0  0  0  0  0  0  0  0  0  0
  -17.8127   13.3626  -27.8293 C   0  0  0  0  0  0  0  0  0  0  0  0
  -16.9378   12.6584  -27.0939 N   0  0  0  0  0  0  0  0  0  0  0  0
  -15.6203   12.6528  -27.4381 C   0  0  0  0  0  0  0  0  0  0  0  0
  -14.6874   11.9211  -26.6316 N   0  0  0  0  0  0  0  0  0  0  0  0
  -15.2151   13.3700  -28.5348 C   0  0  0  0  0  0  0  0  0  0  0  0
  -11.5043   13.5761  -29.0271 C   0  0  0  0  0  0  0  0  0  0  0  0
  -10.3008   13.0729  -28.5723 C   0  0  0  0  0  0  0  0  0  0  0  0
  1  2  1  0
  2  3  2  0
  3  4  1  0
  4  5  2  0
  5  6  1  0
  6  7  2  0
  7  8  1  0
  8  9  1  0
  9 10  1  0
  9 11  1  0
  9 12  1  0
  8 13  1  0
 13 14  2  0
 14 15  1  0
 15 16  2  0
 16 17  1  0
 17 18  1  0
 17 19  2  0
  5 20  1  0
 20 21  2  0
 21  2  1  0
 19  6  1  0
 19 13  1  0
M  END
$$$$
