
     RDKit          3D

 15 15  0  0  0  0  0  0  0  0999 V2000
  -18.9074   34.3929  -23.2499 C   0  0  0  0  0  0  0  0  0  0  0  0
  -18.9222   35.6586  -22.4086 C   0  0  2  0  0  0  0  0  0  0  0  0
  -19.8657   35.4821  -21.3127 N   0  0  0  0  0  0  0  0  0  0  0  0
  -19.4353   36.8260  -23.2132 C   0  0  0  0  0  0  0  0  0  0  0  0
  -19.5174   38.0683  -22.4116 C   0  0  0  0  0  0  0  0  0  0  0  0
  -20.6950   38.5212  -21.8722 C   0  0  0  0  0  0  0  0  0  0  0  0
  -20.7593   39.6804  -21.1207 C   0  0  0  0  0  0  0  0  0  0  0  0
  -19.6237   40.3998  -20.9050 C   0  0  0  0  0  0  0  0  0  0  0  0
  -19.6128   41.5711  -20.1617 O   0  0  0  0  0  0  0  0  0  0  0  0
  -18.4274   39.9763  -21.4298 C   0  0  0  0  0  0  0  0  0  0  0  0
  -17.2633   40.7204  -21.2046 O   0  0  0  0  0  0  0  0  0  0  0  0
  -18.3623   38.8229  -22.1778 C   0  0  0  0  0  0  0  0  0  0  0  0
  -17.5878   35.9084  -21.8302 C   0  0  0  0  0  0  0  0  0  0  0  0
  -17.4441   35.9416  -20.5809 O   0  0  0  0  0  0  0  0  0  0  0  0
  -16.4945   36.1062  -22.6554 O   0  0  0  0  0  0  0  0  0  0  0  0
  2  1  1  6
  2  3  1  0
  2  4  1  0
  4  5  1  0
  5  6  2  0
  6  7  1  0
  7  8  2  0
  8  9  1  0
  8 10  1  0
 10 11  1  0
 10 12  2  0
  2 13  1  0
 13 14  2  0
 13 15  1  0
 12  5  1  0
M  END
$$$$
