
     RDKit          3D

 28 29  0  0  0  0  0  0  0  0999 V2000
  -22.5518   23.3196  -45.6556 C   0  0  0  0  0  0  0  0  0  0  0  0
  -21.6320   24.4188  -45.2227 C   0  0  0  0  0  0  0  0  0  0  0  0
  -22.1223   25.7970  -45.5811 C   0  0  0  0  0  0  0  0  0  0  0  0
  -21.3496   24.2877  -43.7234 C   0  0  0  0  0  0  0  0  0  0  0  0
  -20.5818   23.0033  -43.5505 C   0  0  0  0  0  0  0  0  0  0  0  0
  -19.9695   22.9545  -42.3292 O   0  0  0  0  0  0  0  0  0  0  0  0
  -19.2284   21.9371  -41.7980 C   0  0  0  0  0  0  0  0  0  0  0  0
  -19.7068   20.7633  -41.2970 C   0  0  0  0  0  0  0  0  0  0  0  0
  -18.8705   19.8229  -40.7834 C   0  0  0  0  0  0  0  0  0  0  0  0
  -17.4852   19.9966  -40.7390 C   0  0  0  0  0  0  0  0  0  0  0  0
  -16.7194   18.9864  -40.1903 N   0  0  0  0  0  0  0  0  0  0  0  0
  -16.5098   18.6921  -38.8269 C   0  0  0  0  0  0  0  0  0  0  0  0
  -17.5580   18.9845  -37.6356 S   0  0  0  0  0  0  0  0  0  0  0  0
  -15.2349   18.0959  -38.4605 N   0  0  0  0  0  0  0  0  0  0  0  0
  -15.1618   17.4147  -37.2257 C   0  0  0  0  0  0  0  0  0  0  0  0
  -14.1678   17.7255  -36.2951 C   0  0  0  0  0  0  0  0  0  0  0  0
  -14.0664   17.0692  -35.0811 C   0  0  0  0  0  0  0  0  0  0  0  0
  -14.9489   16.0689  -34.7325 C   0  0  0  0  0  0  0  0  0  0  0  0
  -14.8448   15.4124  -33.5154 O   0  0  0  0  0  0  0  0  0  0  0  0
  -13.9802   14.3022  -33.3711 C   0  0  0  0  0  0  0  0  0  0  0  0
  -14.4739   13.4718  -32.2124 C   0  0  0  0  0  0  0  0  0  0  0  0
  -13.5707   13.5898  -31.0091 C   0  0  0  0  0  0  0  0  0  0  0  0
  -13.8100   12.5224  -29.9737 C   0  0  0  0  0  0  0  0  0  0  0  0
  -13.8736   14.9342  -30.3559 C   0  0  0  0  0  0  0  0  0  0  0  0
  -15.9308   15.7563  -35.6445 C   0  0  0  0  0  0  0  0  0  0  0  0
  -16.0363   16.4151  -36.8653 C   0  0  0  0  0  0  0  0  0  0  0  0
  -17.0236   21.1655  -41.2405 C   0  0  0  0  0  0  0  0  0  0  0  0
  -17.8414   22.1591  -41.7761 C   0  0  0  0  0  0  0  0  0  0  0  0
  1  2  1  0
  2  3  1  0
  2  4  1  0
  4  5  1  0
  5  6  1  0
  6  7  1  0
  7  8  2  0
  8  9  1  0
  9 10  2  0
 10 11  1  0
 11 12  1  0
 12 13  2  0
 12 14  1  0
 14 15  1  0
 15 16  2  0
 16 17  1  0
 17 18  2  0
 18 19  1  0
 19 20  1  0
 20 21  1  0
 21 22  1  0
 22 23  1  0
 22 24  1  0
 18 25  1  0
 25 26  2  0
 10 27  1  0
 27 28  2  0
 28  7  1  0
 26 15  1  0
M  END
$$$$
