
     RDKit          3D

 29 33  0  0  0  0  0  0  0  0999 V2000
  -22.2267   43.2129  -22.0948 C   0  0  0  0  0  0  0  0  0  0  0  0
  -20.9792   42.7287  -22.5463 O   0  0  0  0  0  0  0  0  0  0  0  0
  -19.9850   42.2815  -21.7099 C   0  0  0  0  0  0  0  0  0  0  0  0
  -19.1717   43.2623  -21.1515 C   0  0  0  0  0  0  0  0  0  0  0  0
  -19.3687   44.6324  -21.4500 N   0  0  0  0  0  0  0  0  0  0  0  0
  -19.3691   45.8257  -20.6678 C   0  0  0  0  0  0  0  0  0  0  0  0
  -18.4284   46.7247  -21.4864 C   0  0  2  0  0  0  0  0  0  0  0  0
  -18.8326   48.1576  -21.2898 C   0  0  0  0  0  0  0  0  0  0  0  0
  -18.2663   49.0574  -22.3543 C   0  0  0  0  0  0  0  0  0  0  0  0
  -18.2256   48.4002  -23.7156 C   0  0  0  0  0  0  0  0  0  0  0  0
  -19.2499   47.3446  -23.6883 N   0  0  0  0  0  0  0  0  0  0  0  0
  -18.6845   46.2602  -22.9173 C   0  0  2  0  0  0  0  0  0  0  0  0
  -19.6385   45.0867  -22.8233 C   0  0  0  0  0  0  0  0  0  0  0  0
  -18.1678   42.8382  -20.3042 C   0  0  0  0  0  0  0  0  0  0  0  0
  -17.3662   43.7928  -19.7521 F   0  0  0  0  0  0  0  0  0  0  0  0
  -17.9755   41.5098  -20.0217 C   0  0  0  0  0  0  0  0  0  0  0  0
  -18.7999   40.5679  -20.5947 C   0  0  0  0  0  0  0  0  0  0  0  0
  -18.5681   39.2404  -20.2953 C   0  0  0  0  0  0  0  0  0  0  0  0
  -17.6330   38.9418  -19.5124 O   0  0  0  0  0  0  0  0  0  0  0  0
  -19.3755   38.2915  -20.8699 C   0  0  0  0  0  0  0  0  0  0  0  0
  -19.1502   36.8871  -20.5686 C   0  0  0  0  0  0  0  0  0  0  0  0
  -18.1499   36.5238  -19.9032 O   0  0  0  0  0  0  0  0  0  0  0  0
  -20.0574   35.9527  -21.0272 O   0  0  0  0  0  0  0  0  0  0  0  0
  -20.3834   38.6842  -21.7205 C   0  0  0  0  0  0  0  0  0  0  0  0
  -20.6188   39.9959  -22.0211 N   0  0  0  0  0  0  0  0  0  0  0  0
  -21.6648   40.3455  -22.9404 C   0  0  0  0  0  0  0  0  0  0  0  0
  -23.0808   40.0467  -22.7681 C   0  0  0  0  0  0  0  0  0  0  0  0
  -22.6486   41.3549  -22.2785 C   0  0  0  0  0  0  0  0  0  0  0  0
  -19.8395   40.9316  -21.4657 C   0  0  0  0  0  0  0  0  0  0  0  0
  1  2  1  0
  2  3  1  0
  3  4  2  0
  4  5  1  0
  5  6  1  0
  7  6  1  1
  7  8  1  0
  8  9  1  0
  9 10  1  0
 10 11  1  0
 11 12  1  0
 12 13  1  1
  4 14  1  0
 14 15  1  0
 14 16  2  0
 16 17  1  0
 17 18  1  0
 18 19  2  0
 18 20  1  0
 20 21  1  0
 21 22  2  0
 21 23  1  0
 20 24  2  0
 24 25  1  0
 25 26  1  0
 26 27  1  0
 27 28  1  0
 25 29  1  0
 29  3  1  0
 13  5  1  0
 29 17  2  0
 12  7  1  0
 28 26  1  0
M  END
$$$$
