
     RDKit          3D

 32 36  0  0  0  0  0  0  0  0999 V2000
  -12.9731   11.6159  -28.5327 C   0  0  0  0  0  0  0  0  0  0  0  0
  -14.3232   12.1562  -28.8602 C   0  0  0  0  0  0  0  0  0  0  0  0
  -14.9971   12.6372  -27.5628 C   0  0  0  0  0  0  0  0  0  0  0  0
  -14.3073   13.3377  -29.7575 C   0  0  0  0  0  0  0  0  0  0  0  0
  -15.4325   14.0018  -30.2000 C   0  0  0  0  0  0  0  0  0  0  0  0
  -15.0217   15.0357  -31.0222 C   0  0  0  0  0  0  0  0  0  0  0  0
  -15.8235   16.0457  -31.7468 C   0  0  0  0  0  0  0  0  0  0  0  0
  -17.0516   15.5037  -32.2702 N   0  0  0  0  0  0  0  0  0  0  0  0
  -18.2585   16.1134  -31.8429 C   0  0  0  0  0  0  0  0  0  0  0  0
  -18.2430   17.1147  -30.9197 N   0  0  0  0  0  0  0  0  0  0  0  0
  -19.3558   17.7225  -30.4802 C   0  0  0  0  0  0  0  0  0  0  0  0
  -19.3088   18.7734  -29.5243 N   0  0  0  0  0  0  0  0  0  0  0  0
  -20.2828   19.8312  -29.5528 C   0  0  0  0  0  0  0  0  0  0  0  0
  -20.1809   21.1301  -29.1319 C   0  0  0  0  0  0  0  0  0  0  0  0
  -21.3745   21.7819  -29.3594 C   0  0  0  0  0  0  0  0  0  0  0  0
  -21.7163   23.2036  -29.0542 C   0  0  0  0  0  0  0  0  0  0  0  0
  -21.4207   23.8148  -27.7569 C   0  0  0  0  0  0  0  0  0  0  0  0
  -20.4851   24.0870  -28.8989 C   0  0  0  0  0  0  0  0  0  0  0  0
  -22.1702   20.8529  -29.9156 N   0  0  0  0  0  0  0  0  0  0  0  0
  -21.5387   19.6907  -30.0377 N   0  0  0  0  0  0  0  0  0  0  0  0
  -20.5649   17.2920  -31.0057 C   0  0  0  0  0  0  0  0  0  0  0  0
  -20.6327   16.2835  -31.9396 C   0  0  0  0  0  0  0  0  0  0  0  0
  -21.8445   15.8136  -32.4939 N   0  0  0  0  0  0  0  0  0  0  0  0
  -21.8513   14.5020  -33.1527 C   0  0  0  0  0  0  0  0  0  0  0  0
  -23.1544   14.2408  -33.8251 C   0  0  0  0  0  0  0  0  0  0  0  0
  -24.3088   14.4427  -32.9850 N   0  0  0  0  0  0  0  0  0  0  0  0
  -24.7697   13.2227  -32.3598 C   0  0  0  0  0  0  0  0  0  0  0  0
  -24.1994   15.5575  -32.1066 C   0  0  0  0  0  0  0  0  0  0  0  0
  -23.0833   16.5167  -32.4678 C   0  0  0  0  0  0  0  0  0  0  0  0
  -19.4447   15.7377  -32.3147 N   0  0  0  0  0  0  0  0  0  0  0  0
  -13.7063   14.9713  -31.0543 O   0  0  0  0  0  0  0  0  0  0  0  0
  -13.2666   13.9861  -30.3219 N   0  0  0  0  0  0  0  0  0  0  0  0
  1  2  1  0
  2  3  1  0
  2  4  1  0
  4  5  1  0
  5  6  2  0
  6  7  1  0
  7  8  1  0
  8  9  1  0
  9 10  2  0
 10 11  1  0
 11 12  1  0
 12 13  1  0
 13 14  1  0
 14 15  2  0
 15 16  1  0
 16 17  1  0
 17 18  1  0
 15 19  1  0
 19 20  1  0
 11 21  2  0
 21 22  1  0
 22 23  1  0
 23 24  1  0
 24 25  1  0
 25 26  1  0
 26 27  1  0
 26 28  1  0
 28 29  1  0
 22 30  2  0
  6 31  1  0
 31 32  1  0
 32  4  2  0
 30  9  1  0
 20 13  2  0
 29 23  1  0
 18 16  1  0
M  END
$$$$
