
     RDKit          3D

 29 34  0  0  0  0  0  0  0  0999 V2000
  -15.9026   -1.1305  -32.2469 C   0  0  0  0  0  0  0  0  0  0  0  0
  -15.7800   -0.8868  -33.7062 C   0  0  2  0  0  0  0  0  0  0  0  0
  -16.5067   -1.9243  -34.5213 C   0  0  0  0  0  0  0  0  0  0  0  0
  -15.8754   -3.2802  -34.2963 C   0  0  0  0  0  0  0  0  0  0  0  0
  -14.3985   -3.3320  -34.4576 C   0  0  1  0  0  0  0  0  0  0  0  0
  -13.7649   -2.2263  -33.6248 C   0  0  1  0  0  0  0  0  0  0  0  0
  -12.2867   -2.1804  -33.6686 C   0  0  0  0  0  0  0  0  0  0  0  0
  -11.7419   -3.5605  -33.5624 C   0  0  0  0  0  0  0  0  0  0  0  0
  -12.4353   -4.6689  -33.7406 C   0  0  0  0  0  0  0  0  0  0  0  0
  -11.7430   -5.9737  -33.5999 C   0  0  0  0  0  0  0  0  0  0  0  0
  -11.7918   -6.6763  -34.9329 C   0  0  1  0  0  0  0  0  0  0  0  0
  -12.0765   -8.0173  -34.8294 O   0  0  0  0  0  0  0  0  0  0  0  0
  -12.6813   -5.9350  -35.8728 C   0  0  0  0  0  0  0  0  0  0  0  0
  -14.0447   -5.6330  -35.2502 C   0  0  0  0  0  0  0  0  0  0  0  0
  -13.8789   -4.6902  -34.0780 C   0  0  2  0  0  0  0  0  0  0  0  0
  -14.6748   -5.2417  -32.9166 C   0  0  0  0  0  0  0  0  0  0  0  0
  -14.3466   -0.9749  -34.2224 C   0  0  2  0  0  0  0  0  0  0  0  0
  -13.7944    0.3081  -33.7842 C   0  0  0  0  0  0  0  0  0  0  0  0
  -14.9907    1.1987  -34.0781 C   0  0  0  0  0  0  0  0  0  0  0  0
  -16.1081    0.5216  -34.0344 C   0  0  0  0  0  0  0  0  0  0  0  0
  -17.4000    1.0445  -34.3165 N   0  0  0  0  0  0  0  0  0  0  0  0
  -17.6469    1.9822  -35.2591 C   0  0  0  0  0  0  0  0  0  0  0  0
  -18.9522    2.2955  -35.2098 N   0  0  0  0  0  0  0  0  0  0  0  0
  -19.5678    1.5803  -34.2517 C   0  0  0  0  0  0  0  0  0  0  0  0
  -20.8720    1.5429  -33.8038 C   0  0  0  0  0  0  0  0  0  0  0  0
  -21.2569    0.7193  -32.7725 C   0  0  0  0  0  0  0  0  0  0  0  0
  -20.2806   -0.0609  -32.2124 C   0  0  0  0  0  0  0  0  0  0  0  0
  -18.9564   -0.0303  -32.6596 C   0  0  0  0  0  0  0  0  0  0  0  0
  -18.5603    0.7879  -33.6919 C   0  0  0  0  0  0  0  0  0  0  0  0
  2  1  1  1
  2  3  1  0
  3  4  1  0
  5  4  1  1
  5  6  1  0
  6  7  1  6
  7  8  1  0
  8  9  2  0
  9 10  1  0
 10 11  1  0
 11 12  1  1
 11 13  1  0
 13 14  1  0
 14 15  1  0
 15 16  1  1
  6 17  1  0
 17 18  1  1
 18 19  1  0
 19 20  2  0
 20 21  1  0
 21 22  1  0
 22 23  2  0
 23 24  1  0
 24 25  2  0
 25 26  1  0
 26 27  2  0
 27 28  1  0
 28 29  2  0
 17  2  1  0
 29 21  1  0
 20  2  1  0
 29 24  1  0
 15  5  1  0
 15  9  1  0
M  END
$$$$
