
     RDKit          3D

 17 20  0  0  0  0  0  0  0  0999 V2000
  -19.1547   39.5283  -24.5972 O   0  0  0  0  0  0  0  0  0  0  0  0
  -19.2216   39.5450  -23.3614 C   0  0  0  0  0  0  0  0  0  0  0  0
  -18.3647   40.3878  -22.5027 C   0  0  0  0  0  0  0  0  0  0  0  0
  -17.4353   41.2060  -23.0850 C   0  0  0  0  0  0  0  0  0  0  0  0
  -16.6081   42.0153  -22.3216 C   0  0  0  0  0  0  0  0  0  0  0  0
  -16.7187   42.0016  -20.9304 C   0  0  0  0  0  0  0  0  0  0  0  0
  -17.6530   41.1801  -20.3310 C   0  0  0  0  0  0  0  0  0  0  0  0
  -18.4679   40.3799  -21.1286 C   0  0  0  0  0  0  0  0  0  0  0  0
  -19.4532   39.5123  -20.5135 C   0  0  0  0  0  0  0  0  0  0  0  0
  -19.8255   39.2510  -19.2318 N   0  0  0  0  0  0  0  0  0  0  0  0
  -20.8137   38.3402  -19.2583 N   0  0  0  0  0  0  0  0  0  0  0  0
  -21.0909   38.0046  -20.5303 C   0  0  0  0  0  0  0  0  0  0  0  0
  -21.9637   37.1601  -21.1843 C   0  0  0  0  0  0  0  0  0  0  0  0
  -21.9476   37.0866  -22.5801 C   0  0  0  0  0  0  0  0  0  0  0  0
  -21.0640   37.8520  -23.3299 C   0  0  0  0  0  0  0  0  0  0  0  0
  -20.1893   38.6979  -22.6791 C   0  0  0  0  0  0  0  0  0  0  0  0
  -20.2392   38.7390  -21.3067 C   0  0  0  0  0  0  0  0  0  0  0  0
  1  2  2  0
  2  3  1  0
  3  4  2  0
  4  5  1  0
  5  6  2  0
  6  7  1  0
  7  8  2  0
  8  9  1  0
  9 10  2  0
 10 11  1  0
 11 12  1  0
 12 13  1  0
 13 14  2  0
 14 15  1  0
 15 16  2  0
 16 17  1  0
 16  2  1  0
  8  3  1  0
 17  9  1  0
 17 12  2  0
M  END
$$$$
