
     RDKit          3D

 25 27  0  0  0  0  0  0  0  0999 V2000
  -17.5411   39.3215  -22.2635 C   0  0  0  0  0  0  0  0  0  0  0  0
  -18.0810   40.4575  -21.5126 N   0  0  0  0  0  0  0  0  0  0  0  0
  -19.1456   40.2705  -20.5986 C   0  0  0  0  0  0  0  0  0  0  0  0
  -19.8155   39.2181  -20.6912 O   0  0  0  0  0  0  0  0  0  0  0  0
  -19.4327   41.2915  -19.5851 C   0  0  0  0  0  0  0  0  0  0  0  0
  -20.7109   41.0332  -18.8580 C   0  0  0  0  0  0  0  0  0  0  0  0
  -21.3228   42.3008  -18.3822 C   0  0  0  0  0  0  0  0  0  0  0  0
  -21.8830   42.0274  -17.0852 O   0  0  0  0  0  0  0  0  0  0  0  0
  -22.6631   43.0305  -16.5162 C   0  0  0  0  0  0  0  0  0  0  0  0
  -22.7316   44.3109  -17.0363 C   0  0  0  0  0  0  0  0  0  0  0  0
  -23.5138   45.2862  -16.4510 C   0  0  0  0  0  0  0  0  0  0  0  0
  -24.2602   45.0220  -15.3213 C   0  0  0  0  0  0  0  0  0  0  0  0
  -25.0249   45.9788  -14.7507 N   0  0  0  0  0  0  0  0  0  0  0  0
  -25.7441   45.7091  -13.6549 C   0  0  0  0  0  0  0  0  0  0  0  0
  -26.4490   46.6322  -13.1487 O   0  0  0  0  0  0  0  0  0  0  0  0
  -25.7331   44.4562  -13.0706 C   0  0  0  0  0  0  0  0  0  0  0  0
  -24.9495   43.4861  -13.6602 C   0  0  0  0  0  0  0  0  0  0  0  0
  -24.1981   43.7488  -14.7960 C   0  0  0  0  0  0  0  0  0  0  0  0
  -23.4118   42.7723  -15.3862 C   0  0  0  0  0  0  0  0  0  0  0  0
  -17.5300   41.7842  -21.6837 C   0  0  0  0  0  0  0  0  0  0  0  0
  -18.6707   42.7622  -21.5901 C   0  0  0  0  0  0  0  0  0  0  0  0
  -18.2460   44.1893  -21.5782 C   0  0  0  0  0  0  0  0  0  0  0  0
  -16.8294   44.4188  -21.1689 C   0  0  0  0  0  0  0  0  0  0  0  0
  -16.5067   43.4054  -20.0687 C   0  0  0  0  0  0  0  0  0  0  0  0
  -16.4604   42.0355  -20.6539 C   0  0  0  0  0  0  0  0  0  0  0  0
  1  2  1  0
  2  3  1  0
  3  4  2  0
  3  5  1  0
  5  6  1  0
  6  7  1  0
  7  8  1  0
  8  9  1  0
  9 10  2  0
 10 11  1  0
 11 12  2  0
 12 13  1  0
 13 14  1  0
 14 15  2  0
 14 16  1  0
 16 17  2  0
 17 18  1  0
 18 19  2  0
  2 20  1  0
 20 21  1  0
 21 22  1  0
 22 23  1  0
 23 24  1  0
 24 25  1  0
 19  9  1  0
 25 20  1  0
 18 12  1  0
M  END
$$$$
