
     RDKit          3D

 28 30  0  0  0  0  0  0  0  0999 V2000
  -27.0568   24.1238  -34.3078 C   0  0  0  0  0  0  0  0  0  0  0  0
  -25.7568   24.6944  -34.4076 C   0  0  0  0  0  0  0  0  0  0  0  0
  -24.9917   25.3060  -33.5498 C   0  0  0  0  0  0  0  0  0  0  0  0
  -23.5876   25.6295  -33.7312 C   0  0  0  0  0  0  0  0  0  0  0  0
  -23.0095   26.3597  -32.7191 C   0  0  0  0  0  0  0  0  0  0  0  0
  -22.4523   27.0517  -31.7592 N   0  0  0  0  0  0  0  0  0  0  0  0
  -23.0204   25.2714  -34.8860 C   0  0  0  0  0  0  0  0  0  0  0  0
  -23.8734   24.6472  -35.7455 C   0  0  0  0  0  0  0  0  0  0  0  0
  -23.2461   24.9492  -37.2792 C   0  0  0  0  0  0  0  0  0  0  0  0
  -24.9775   24.2621  -35.8667 C   0  0  0  0  0  0  0  0  0  0  0  0
  -26.0378   23.6899  -36.4695 O   0  0  0  0  0  0  0  0  0  0  0  0
  -26.8424   24.4148  -37.2576 C   0  0  0  0  0  0  0  0  0  0  0  0
  -26.9202   25.7260  -37.3470 N   0  0  0  0  0  0  0  0  0  0  0  0
  -27.5372   26.6687  -37.9611 C   0  0  0  0  0  0  0  0  0  0  0  0
  -27.4369   28.0485  -38.0018 N   0  0  0  0  0  0  0  0  0  0  0  0
  -26.4111   28.7389  -37.1731 C   0  0  0  0  0  0  0  0  0  0  0  0
  -25.9584   29.9518  -37.6299 C   0  0  0  0  0  0  0  0  0  0  0  0
  -25.1487   30.7693  -36.7735 C   0  0  0  0  0  0  0  0  0  0  0  0
  -24.8947   30.2687  -35.5229 C   0  0  0  0  0  0  0  0  0  0  0  0
  -24.4420   31.0944  -34.3382 C   0  0  0  0  0  0  0  0  0  0  0  0
  -24.1101   31.6994  -33.4981 N   0  0  0  0  0  0  0  0  0  0  0  0
  -25.3499   29.0366  -35.0764 C   0  0  0  0  0  0  0  0  0  0  0  0
  -26.1438   28.2691  -36.0017 C   0  0  0  0  0  0  0  0  0  0  0  0
  -28.4710   26.0669  -38.8988 N   0  0  0  0  0  0  0  0  0  0  0  0
  -28.5400   24.6532  -38.9452 C   0  0  0  0  0  0  0  0  0  0  0  0
  -29.5674   24.1815  -39.8449 N   0  0  0  0  0  0  0  0  0  0  0  0
  -27.7831   23.9285  -38.1717 C   0  0  0  0  0  0  0  0  0  0  0  0
  -28.0319   21.9660  -38.1586 Br  0  0  0  0  0  0  0  0  0  0  0  0
  1  2  1  0
  2  3  2  0
  3  4  1  0
  4  5  1  0
  5  6  3  0
  4  7  2  0
  7  8  1  0
  8  9  1  0
  8 10  2  0
 10 11  1  0
 11 12  1  0
 12 13  2  0
 13 14  1  0
 14 15  1  0
 15 16  1  0
 16 17  2  0
 17 18  1  0
 18 19  2  0
 19 20  1  0
 20 21  3  0
 19 22  1  0
 22 23  2  0
 14 24  2  0
 24 25  1  0
 25 26  1  0
 25 27  2  0
 27 28  1  0
 10  2  1  0
 27 12  1  0
 23 16  1  0
M  END
$$$$
