
     RDKit          3D

 22 24  0  0  0  0  0  0  0  0999 V2000
  -18.3965   30.5945  -21.6139 C   0  0  0  0  0  0  0  0  0  0  0  0
  -18.0915   32.0428  -21.4785 C   0  0  0  0  0  0  0  0  0  0  0  0
  -16.7374   32.1690  -20.7584 C   0  0  0  0  0  0  0  0  0  0  0  0
  -18.0065   32.7973  -22.6550 N   0  0  0  0  0  0  0  0  0  0  0  0
  -17.6919   34.1637  -22.6235 C   0  0  0  0  0  0  0  0  0  0  0  0
  -18.6728   35.0442  -21.8462 C   0  0  0  0  0  0  0  0  0  0  0  0
  -19.8464   35.2755  -22.6101 O   0  0  0  0  0  0  0  0  0  0  0  0
  -18.0703   36.4221  -21.6765 C   0  0  0  0  0  0  0  0  0  0  0  0
  -18.8680   37.4957  -21.8764 O   0  0  0  0  0  0  0  0  0  0  0  0
  -18.7159   38.7642  -22.3163 C   0  0  0  0  0  0  0  0  0  0  0  0
  -17.4822   39.3720  -22.4001 C   0  0  0  0  0  0  0  0  0  0  0  0
  -17.3568   40.6695  -22.8524 C   0  0  0  0  0  0  0  0  0  0  0  0
  -18.4490   41.4096  -23.2367 C   0  0  0  0  0  0  0  0  0  0  0  0
  -19.6989   40.8091  -23.1565 C   0  0  0  0  0  0  0  0  0  0  0  0
  -20.9584   41.2426  -23.4478 N   0  0  0  0  0  0  0  0  0  0  0  0
  -21.8471   40.2540  -23.1887 C   0  0  0  0  0  0  0  0  0  0  0  0
  -23.2140   40.1674  -23.3038 C   0  0  0  0  0  0  0  0  0  0  0  0
  -23.8870   39.0036  -22.9577 C   0  0  0  0  0  0  0  0  0  0  0  0
  -23.2196   37.8921  -22.4869 C   0  0  0  0  0  0  0  0  0  0  0  0
  -21.8487   37.9941  -22.3768 C   0  0  0  0  0  0  0  0  0  0  0  0
  -21.1627   39.1491  -22.7184 C   0  0  0  0  0  0  0  0  0  0  0  0
  -19.8400   39.5213  -22.7096 C   0  0  0  0  0  0  0  0  0  0  0  0
  1  2  1  0
  2  3  1  0
  2  4  1  0
  4  5  1  0
  5  6  1  0
  6  7  1  0
  6  8  1  0
  8  9  1  0
  9 10  1  0
 10 11  2  0
 11 12  1  0
 12 13  2  0
 13 14  1  0
 14 15  1  0
 15 16  1  0
 16 17  2  0
 17 18  1  0
 18 19  2  0
 19 20  1  0
 20 21  2  0
 21 22  1  0
 22 10  1  0
 22 14  2  0
 21 16  1  0
M  END
$$$$
