
     RDKit          3D

 29 31  0  0  0  0  0  0  0  0999 V2000
    4.1487   26.8145  -17.9439 C   0  0  0  0  0  0  0  0  0  0  0  0
    2.9190   26.5561  -18.5386 O   0  0  0  0  0  0  0  0  0  0  0  0
    2.6885   25.9725  -19.7618 C   0  0  0  0  0  0  0  0  0  0  0  0
    2.1264   26.7436  -20.7724 C   0  0  0  0  0  0  0  0  0  0  0  0
    1.8736   26.2157  -22.0140 C   0  0  0  0  0  0  0  0  0  0  0  0
    2.1859   24.8699  -22.2778 C   0  0  0  0  0  0  0  0  0  0  0  0
    1.9153   24.3894  -23.5457 O   0  0  0  0  0  0  0  0  0  0  0  0
    0.9811   23.4100  -23.8725 C   0  0  0  0  0  0  0  0  0  0  0  0
    2.7372   24.0774  -21.3160 C   0  0  0  0  0  0  0  0  0  0  0  0
    3.0650   22.6680  -21.5193 C   0  0  0  0  0  0  0  0  0  0  0  0
    3.8236   22.0111  -20.4979 N   0  0  0  0  0  0  0  0  0  0  0  0
    5.2169   21.9164  -20.4765 C   0  0  0  0  0  0  0  0  0  0  0  0
    6.0131   22.6876  -21.4950 C   0  0  0  0  0  0  0  0  0  0  0  0
    5.8726   21.2358  -19.6731 O   0  0  0  0  0  0  0  0  0  0  0  0
    3.1055   21.3959  -19.4188 C   0  0  0  0  0  0  0  0  0  0  0  0
    2.8162   22.1392  -18.2728 C   0  0  0  0  0  0  0  0  0  0  0  0
    2.1224   21.4897  -17.2558 C   0  0  0  0  0  0  0  0  0  0  0  0
    1.8254   22.1900  -16.1209 F   0  0  0  0  0  0  0  0  0  0  0  0
    1.7240   20.1730  -17.3440 C   0  0  0  0  0  0  0  0  0  0  0  0
    2.0308   19.4715  -18.4980 C   0  0  0  0  0  0  0  0  0  0  0  0
    2.7244   20.1038  -19.5268 C   0  0  0  0  0  0  0  0  0  0  0  0
    3.0084   19.3701  -20.6557 O   0  0  0  0  0  0  0  0  0  0  0  0
    2.1055   18.4927  -21.1983 C   0  0  0  0  0  0  0  0  0  0  0  0
    2.2755   17.1490  -21.0782 C   0  0  0  0  0  0  0  0  0  0  0  0
    1.3911   16.2203  -21.6074 C   0  0  0  0  0  0  0  0  0  0  0  0
    0.3078   16.6947  -22.2760 C   0  0  0  0  0  0  0  0  0  0  0  0
    0.0973   18.0464  -22.4216 C   0  0  0  0  0  0  0  0  0  0  0  0
    1.0091   18.9562  -21.8748 C   0  0  0  0  0  0  0  0  0  0  0  0
    2.9784   24.6700  -20.0525 C   0  0  0  0  0  0  0  0  0  0  0  0
  1  2  1  0
  2  3  1  0
  3  4  2  0
  4  5  1  0
  5  6  2  0
  6  7  1  0
  7  8  1  0
  6  9  1  0
  9 10  1  0
 10 11  1  0
 11 12  1  0
 12 13  1  0
 12 14  2  0
 11 15  1  0
 15 16  2  0
 16 17  1  0
 17 18  1  0
 17 19  2  0
 19 20  1  0
 20 21  2  0
 21 22  1  0
 22 23  1  0
 23 24  2  0
 24 25  1  0
 25 26  2  0
 26 27  1  0
 27 28  2  0
  9 29  2  0
 29  3  1  0
 21 15  1  0
 28 23  1  0
M  END
$$$$
