
     RDKit          3D

 25 28  0  0  0  0  0  0  0  0999 V2000
  -21.1745   42.9234  -28.5299 C   0  0  0  0  0  0  0  0  0  0  0  0
  -21.4934   41.7705  -27.6409 C   0  0  0  0  0  0  0  0  0  0  0  0
  -22.1896   42.1028  -26.4094 N   0  0  0  0  0  0  0  0  0  0  0  0
  -23.6100   42.2782  -26.3939 C   0  0  0  0  0  0  0  0  0  0  0  0
  -24.2750   41.0153  -25.8968 C   0  0  0  0  0  0  0  0  0  0  0  0
  -21.4181   42.2967  -25.2262 C   0  0  0  0  0  0  0  0  0  0  0  0
  -21.8671   43.1913  -24.2814 C   0  0  0  0  0  0  0  0  0  0  0  0
  -21.0671   43.3695  -23.1410 C   0  0  0  0  0  0  0  0  0  0  0  0
  -19.8912   42.6985  -22.9520 C   0  0  0  0  0  0  0  0  0  0  0  0
  -19.1281   42.8879  -21.8328 C   0  0  0  0  0  0  0  0  0  0  0  0
  -17.9420   42.1846  -21.6847 C   0  0  0  0  0  0  0  0  0  0  0  0
  -17.1663   42.4272  -20.4533 C   0  0  0  0  0  0  0  0  0  0  0  0
  -17.6710   42.8736  -19.2793 N   0  0  0  0  0  0  0  0  0  0  0  0
  -16.7151   42.9896  -18.3512 C   0  0  0  0  0  0  0  0  0  0  0  0
  -16.7515   43.3995  -17.0307 C   0  0  0  0  0  0  0  0  0  0  0  0
  -15.5719   43.4046  -16.3356 C   0  0  0  0  0  0  0  0  0  0  0  0
  -14.3761   43.0181  -16.9123 C   0  0  0  0  0  0  0  0  0  0  0  0
  -14.3640   42.6143  -18.2260 C   0  0  0  0  0  0  0  0  0  0  0  0
  -15.5313   42.5970  -18.9577 C   0  0  0  0  0  0  0  0  0  0  0  0
  -15.8577   42.2642  -20.2337 N   0  0  0  0  0  0  0  0  0  0  0  0
  -17.5571   41.3183  -22.6553 C   0  0  0  0  0  0  0  0  0  0  0  0
  -16.4754   40.6797  -22.5163 O   0  0  0  0  0  0  0  0  0  0  0  0
  -18.3091   41.1475  -23.7325 O   0  0  0  0  0  0  0  0  0  0  0  0
  -19.4436   41.8038  -23.8992 C   0  0  0  0  0  0  0  0  0  0  0  0
  -20.2195   41.6182  -25.0250 C   0  0  0  0  0  0  0  0  0  0  0  0
  1  2  1  0
  2  3  1  0
  3  4  1  0
  4  5  1  0
  3  6  1  0
  6  7  2  0
  7  8  1  0
  8  9  2  0
  9 10  1  0
 10 11  2  0
 11 12  1  0
 12 13  2  0
 13 14  1  0
 14 15  2  0
 15 16  1  0
 16 17  2  0
 17 18  1  0
 18 19  2  0
 19 20  1  0
 11 21  1  0
 21 22  2  0
 21 23  1  0
 23 24  1  0
 24 25  2  0
 25  6  1  0
 24  9  1  0
 20 12  1  0
 19 14  1  0
M  END
$$$$
