
     RDKit          3D

 26 30  0  0  0  0  0  0  0  0999 V2000
  -15.8324   43.2943  -20.9908 C   0  0  0  0  0  0  0  0  0  0  0  0
  -16.6489   43.7656  -19.8140 C   0  0  2  0  0  0  0  0  0  0  0  0
  -17.0578   42.6407  -18.9478 C   0  0  0  0  0  0  0  0  0  0  0  0
  -18.4093   42.0695  -19.1125 C   0  0  0  0  0  0  0  0  0  0  0  0
  -19.2162   42.3964  -20.2915 C   0  0  1  0  0  0  0  0  0  0  0  0
  -18.5675   43.4290  -21.2299 C   0  0  1  0  0  0  0  0  0  0  0  0
  -19.6237   43.9447  -22.1485 C   0  0  0  0  0  0  0  0  0  0  0  0
  -20.1289   42.7814  -22.9311 C   0  0  0  0  0  0  0  0  0  0  0  0
  -20.1309   41.5590  -22.4561 C   0  0  0  0  0  0  0  0  0  0  0  0
  -20.6542   40.4683  -23.3122 C   0  0  0  0  0  0  0  0  0  0  0  0
  -21.7928   39.8061  -22.5677 C   0  0  1  0  0  0  0  0  0  0  0  0
  -22.1462   38.6674  -23.2765 O   0  0  0  0  0  0  0  0  0  0  0  0
  -21.3848   39.3986  -21.1691 C   0  0  0  0  0  0  0  0  0  0  0  0
  -20.8192   40.5436  -20.3950 C   0  0  0  0  0  0  0  0  0  0  0  0
  -19.6381   41.2083  -21.1117 C   0  0  2  0  0  0  0  0  0  0  0  0
  -18.5172   40.2033  -21.2558 C   0  0  0  0  0  0  0  0  0  0  0  0
  -17.9737   44.3933  -20.2857 C   0  0  2  0  0  0  0  0  0  0  0  0
  -17.5260   45.6850  -20.7843 C   0  0  0  0  0  0  0  0  0  0  0  0
  -16.4875   46.0207  -19.7420 C   0  0  0  0  0  0  0  0  0  0  0  0
  -15.9948   44.9165  -19.1992 C   0  0  0  0  0  0  0  0  0  0  0  0
  -14.9605   44.9964  -18.1491 C   0  0  0  0  0  0  0  0  0  0  0  0
  -14.0358   43.9885  -18.0285 C   0  0  0  0  0  0  0  0  0  0  0  0
  -13.0972   44.0960  -16.9999 C   0  0  0  0  0  0  0  0  0  0  0  0
  -13.1031   45.1725  -16.1446 C   0  0  0  0  0  0  0  0  0  0  0  0
  -14.0006   46.1518  -16.2621 N   0  0  0  0  0  0  0  0  0  0  0  0
  -14.9156   46.0678  -17.2473 C   0  0  0  0  0  0  0  0  0  0  0  0
  2  1  1  6
  2  3  1  0
  3  4  1  0
  5  4  1  1
  5  6  1  0
  6  7  1  6
  7  8  1  0
  8  9  2  0
  9 10  1  0
 10 11  1  0
 11 12  1  6
 11 13  1  0
 13 14  1  0
 14 15  1  0
 15 16  1  6
  6 17  1  0
 17 18  1  6
 18 19  1  0
 19 20  2  0
 20 21  1  0
 21 22  2  0
 22 23  1  0
 23 24  2  0
 24 25  1  0
 25 26  2  0
 17  2  1  0
 26 21  1  0
 20  2  1  0
 15  5  1  0
 15  9  1  0
M  END
$$$$
