
     RDKit          3D

 30 34  0  0  0  0  0  0  0  0999 V2000
  -22.8871   33.4239  -20.1311 C   0  0  0  0  0  0  0  0  0  0  0  0
  -21.9986   34.5187  -20.6515 C   0  0  0  0  0  0  0  0  0  0  0  0
  -20.7105   34.4187  -21.0275 N   0  0  0  0  0  0  0  0  0  0  0  0
  -20.2366   35.6196  -21.4431 C   0  0  0  0  0  0  0  0  0  0  0  0
  -19.0113   36.0488  -21.9169 C   0  0  0  0  0  0  0  0  0  0  0  0
  -18.8046   37.3824  -22.2779 C   0  0  0  0  0  0  0  0  0  0  0  0
  -19.8389   38.2833  -22.1597 C   0  0  0  0  0  0  0  0  0  0  0  0
  -19.6184   39.6672  -22.5307 C   0  0  0  0  0  0  0  0  0  0  0  0
  -20.2671   40.1872  -23.4731 O   0  0  0  0  0  0  0  0  0  0  0  0
  -18.6801   40.4560  -21.8506 N   0  0  0  0  0  0  0  0  0  0  0  0
  -18.1810   41.7083  -22.3976 C   0  0  0  0  0  0  0  0  0  0  0  0
  -18.3168   42.8728  -21.4704 C   0  0  0  0  0  0  0  0  0  0  0  0
  -18.2809   42.5899  -20.0340 C   0  0  0  0  0  0  0  0  0  0  0  0
  -18.4776   41.1813  -19.5960 C   0  0  0  0  0  0  0  0  0  0  0  0
  -18.1151   40.1096  -20.5529 C   0  0  0  0  0  0  0  0  0  0  0  0
  -19.2822   43.4314  -19.2677 C   0  0  0  0  0  0  0  0  0  0  0  0
  -19.0868   44.8805  -19.4951 C   0  0  0  0  0  0  0  0  0  0  0  0
  -19.9601   45.7148  -19.2365 O   0  0  0  0  0  0  0  0  0  0  0  0
  -17.7928   45.3087  -20.0502 C   0  0  0  0  0  0  0  0  0  0  0  0
  -16.7350   44.4222  -20.0521 C   0  0  0  0  0  0  0  0  0  0  0  0
  -15.6764   45.0862  -20.6207 C   0  0  0  0  0  0  0  0  0  0  0  0
  -16.1210   46.3091  -20.9307 N   0  0  0  0  0  0  0  0  0  0  0  0
  -17.3791   46.4619  -20.5991 N   0  0  0  0  0  0  0  0  0  0  0  0
  -18.1885   47.6740  -20.7934 C   0  0  0  0  0  0  0  0  0  0  0  0
  -18.1587   48.0979  -22.2470 C   0  0  0  0  0  0  0  0  0  0  0  0
  -17.5642   48.7293  -19.9043 C   0  0  0  0  0  0  0  0  0  0  0  0
  -16.9084   43.0322  -19.4926 C   0  0  0  0  0  0  0  0  0  0  0  0
  -21.0627   37.8259  -21.6804 C   0  0  0  0  0  0  0  0  0  0  0  0
  -21.2816   36.5101  -21.3193 C   0  0  0  0  0  0  0  0  0  0  0  0
  -22.3289   35.8126  -20.8391 N   0  0  0  0  0  0  0  0  0  0  0  0
  1  2  1  0
  2  3  2  0
  3  4  1  0
  4  5  2  0
  5  6  1  0
  6  7  2  0
  7  8  1  0
  8  9  2  0
  8 10  1  0
 10 11  1  0
 11 12  1  0
 12 13  1  0
 13 14  1  0
 14 15  1  0
 13 16  1  0
 16 17  1  0
 17 18  2  0
 17 19  1  0
 19 20  2  0
 20 21  1  0
 21 22  2  0
 22 23  1  0
 23 24  1  0
 24 25  1  0
 24 26  1  0
 20 27  1  0
  7 28  1  0
 28 29  2  0
 29 30  1  0
 30  2  1  0
 29  4  1  0
 15 10  1  0
 23 19  1  0
 27 13  1  0
M  END
$$$$
