
     RDKit          3D

 30 33  0  0  0  0  0  0  0  0999 V2000
  -20.8503   31.9710  -23.6187 C   0  0  0  0  0  0  0  0  0  0  0  0
  -20.5584   32.2257  -22.1687 C   0  0  2  0  0  0  0  0  0  0  0  0
  -21.7166   31.6902  -21.3008 C   0  0  0  0  0  0  0  0  0  0  0  0
  -22.0573   32.7192  -20.2334 C   0  0  0  0  0  0  0  0  0  0  0  0
  -22.5533   33.9042  -20.7471 O   0  0  0  0  0  0  0  0  0  0  0  0
  -21.8879   34.2747  -21.9373 C   0  0  1  0  0  0  0  0  0  0  0  0
  -21.9452   35.7349  -22.1225 C   0  0  0  0  0  0  0  0  0  0  0  0
  -20.7035   36.4230  -21.8441 N   0  0  0  0  0  0  0  0  0  0  0  0
  -20.7446   37.7896  -21.7803 C   0  0  0  0  0  0  0  0  0  0  0  0
  -19.6361   38.5717  -21.5346 C   0  0  0  0  0  0  0  0  0  0  0  0
  -19.7687   39.9995  -21.4822 C   0  0  0  0  0  0  0  0  0  0  0  0
  -20.8390   40.4364  -20.9182 O   0  0  0  0  0  0  0  0  0  0  0  0
  -18.8526   40.9469  -21.9812 N   0  0  0  0  0  0  0  0  0  0  0  0
  -19.1164   42.3883  -21.8579 C   0  0  0  0  0  0  0  0  0  0  0  0
  -17.9952   43.0727  -21.1892 C   0  0  0  0  0  0  0  0  0  0  0  0
  -16.7911   42.4309  -21.0023 C   0  0  0  0  0  0  0  0  0  0  0  0
  -15.7228   43.0600  -20.3886 C   0  0  0  0  0  0  0  0  0  0  0  0
  -15.8734   44.3562  -19.9578 C   0  0  0  0  0  0  0  0  0  0  0  0
  -14.8638   45.0491  -19.3416 F   0  0  0  0  0  0  0  0  0  0  0  0
  -17.0672   45.0181  -20.1338 C   0  0  0  0  0  0  0  0  0  0  0  0
  -18.1274   44.3881  -20.7448 C   0  0  0  0  0  0  0  0  0  0  0  0
  -19.3197   44.9947  -20.9402 F   0  0  0  0  0  0  0  0  0  0  0  0
  -18.4308   37.9559  -21.3443 C   0  0  0  0  0  0  0  0  0  0  0  0
  -17.3438   38.5303  -21.1137 O   0  0  0  0  0  0  0  0  0  0  0  0
  -18.3596   36.5705  -21.4034 C   0  0  0  0  0  0  0  0  0  0  0  0
  -17.1479   35.9067  -21.2143 O   0  0  0  0  0  0  0  0  0  0  0  0
  -19.5150   35.8674  -21.6532 C   0  0  0  0  0  0  0  0  0  0  0  0
  -19.4325   34.4006  -21.6971 C   0  0  0  0  0  0  0  0  0  0  0  0
  -18.2943   33.8737  -21.5158 O   0  0  0  0  0  0  0  0  0  0  0  0
  -20.5942   33.6578  -21.9332 N   0  0  0  0  0  0  0  0  0  0  0  0
  2  1  1  6
  2  3  1  0
  3  4  1  0
  4  5  1  0
  5  6  1  0
  6  7  1  1
  7  8  1  0
  8  9  1  0
  9 10  2  0
 10 11  1  0
 11 12  2  0
 11 13  1  0
 13 14  1  0
 14 15  1  0
 15 16  2  0
 16 17  1  0
 17 18  2  0
 18 19  1  0
 18 20  1  0
 20 21  2  0
 21 22  1  0
 10 23  1  0
 23 24  2  0
 23 25  1  0
 25 26  1  0
 25 27  2  0
 27 28  1  0
 28 29  2  0
 28 30  1  0
 30  2  1  0
 30  6  1  0
 27  8  1  0
 21 15  1  0
M  END
$$$$
