
     RDKit          3D

 31 32  0  0  0  0  0  0  0  0999 V2000
  -21.1656   40.2161  -22.5571 O   0  0  0  0  0  0  0  0  0  0  0  0
  -20.1203   40.5368  -21.4897 S   0  0  0  0  0  6  0  0  0  0  0  0
  -20.9454   41.0161  -20.3040 O   0  0  0  0  0  0  0  0  0  0  0  0
  -19.2314   39.1148  -21.1167 C   0  0  0  0  0  0  0  0  0  0  0  0
  -18.9027   38.2207  -22.1075 C   0  0  0  0  0  0  0  0  0  0  0  0
  -18.1692   37.0615  -21.8278 C   0  0  0  0  0  0  0  0  0  0  0  0
  -17.7740   36.8210  -20.5327 C   0  0  0  0  0  0  0  0  0  0  0  0
  -18.1038   37.7179  -19.5396 C   0  0  0  0  0  0  0  0  0  0  0  0
  -18.8307   38.8635  -19.8263 C   0  0  0  0  0  0  0  0  0  0  0  0
  -19.1975   41.8369  -22.1017 N   0  0  0  0  0  0  0  0  0  0  0  0
  -19.4246   42.3916  -23.4118 C   0  0  0  0  0  0  0  0  0  0  0  0
  -18.5057   41.9126  -24.4807 C   0  0  0  0  0  0  0  0  0  0  0  0
  -19.1134   41.8201  -25.7146 F   0  0  0  0  0  0  0  0  0  0  0  0
  -17.3937   42.7158  -24.6611 F   0  0  0  0  0  0  0  0  0  0  0  0
  -18.1100   40.6061  -24.1681 F   0  0  0  0  0  0  0  0  0  0  0  0
  -18.1816   42.3931  -21.2531 C   0  0  0  0  0  0  0  0  0  0  0  0
  -18.3991   43.4802  -20.4370 C   0  0  0  0  0  0  0  0  0  0  0  0
  -17.4246   44.0155  -19.6389 C   0  0  0  0  0  0  0  0  0  0  0  0
  -16.1332   43.4834  -19.6048 C   0  0  0  0  0  0  0  0  0  0  0  0
  -15.1060   44.0715  -18.7435 C   0  0  0  0  0  0  0  0  0  0  0  0
  -15.5410   45.3046  -18.1920 O   0  0  0  0  0  0  0  0  0  0  0  0
  -13.8329   44.3940  -19.5452 C   0  0  0  0  0  0  0  0  0  0  0  0
  -13.0974   43.2496  -19.6616 F   0  0  0  0  0  0  0  0  0  0  0  0
  -14.1339   44.9928  -20.7361 F   0  0  0  0  0  0  0  0  0  0  0  0
  -13.1089   45.2702  -18.7435 F   0  0  0  0  0  0  0  0  0  0  0  0
  -14.6512   43.2428  -17.5801 C   0  0  0  0  0  0  0  0  0  0  0  0
  -14.0387   42.0743  -18.0431 F   0  0  0  0  0  0  0  0  0  0  0  0
  -15.7579   42.8028  -16.8318 F   0  0  0  0  0  0  0  0  0  0  0  0
  -13.8173   43.9534  -16.7834 F   0  0  0  0  0  0  0  0  0  0  0  0
  -15.8945   42.4039  -20.4075 C   0  0  0  0  0  0  0  0  0  0  0  0
  -16.9093   41.8705  -21.2186 C   0  0  0  0  0  0  0  0  0  0  0  0
  1  2  2  0
  2  3  2  0
  2  4  1  0
  4  5  2  0
  5  6  1  0
  6  7  2  0
  7  8  1  0
  8  9  2  0
  2 10  1  0
 10 11  1  0
 11 12  1  0
 12 13  1  0
 12 14  1  0
 12 15  1  0
 10 16  1  0
 16 17  2  0
 17 18  1  0
 18 19  2  0
 19 20  1  0
 20 21  1  0
 20 22  1  0
 22 23  1  0
 22 24  1  0
 22 25  1  0
 20 26  1  0
 26 27  1  0
 26 28  1  0
 26 29  1  0
 19 30  1  0
 30 31  2  0
  9  4  1  0
 31 16  1  0
M  END
$$$$
