
     RDKit          3D

 36 37  0  0  0  0  0  0  0  0999 V2000
  -12.1282   43.8048  -14.9617 O   0  0  0  0  0  0  0  0  0  0  0  0
  -12.8769   44.7287  -15.3520 C   0  0  0  0  0  0  0  0  0  0  0  0
  -13.0840   45.8098  -14.5132 O   0  0  0  0  0  1  0  0  0  0  0  0
  -13.5389   44.7091  -16.6569 C   0  0  0  0  0  0  0  0  0  0  0  0
  -13.3455   43.6330  -17.5164 C   0  0  0  0  0  0  0  0  0  0  0  0
  -13.9564   43.5874  -18.7520 C   0  0  0  0  0  0  0  0  0  0  0  0
  -13.8168   42.6509  -19.5556 O   0  0  0  0  0  0  0  0  0  0  0  0
  -14.7593   44.6511  -19.0873 C   0  0  0  0  0  0  0  0  0  0  0  0
  -15.4135   44.6516  -20.3540 C   0  0  0  0  0  0  0  0  0  0  0  0
  -15.1983   43.6049  -21.1432 O   0  0  0  0  0  0  0  0  0  0  0  0
  -15.5024   43.0590  -22.3249 C   0  0  0  0  0  0  0  0  0  0  0  0
  -16.9018   42.6432  -22.6363 C   0  0  0  0  0  0  0  0  0  0  0  0
  -17.8343   43.6239  -22.6169 O   0  0  0  0  0  0  0  0  0  0  0  0
  -17.2556   41.5104  -21.6845 C   0  0  0  0  0  0  0  0  0  0  0  0
  -18.4964   40.9305  -22.0375 O   0  0  0  0  0  0  0  0  0  0  0  0
  -18.9632   39.8784  -21.2635 C   0  0  0  0  0  0  0  0  0  0  0  0
  -18.2526   39.4020  -20.1821 C   0  0  0  0  0  0  0  0  0  0  0  0
  -18.7563   38.3536  -19.4413 C   0  0  0  0  0  0  0  0  0  0  0  0
  -19.9732   37.7653  -19.7664 C   0  0  0  0  0  0  0  0  0  0  0  0
  -20.6996   38.2245  -20.8417 C   0  0  0  0  0  0  0  0  0  0  0  0
  -21.8464   37.6585  -21.1355 O   0  0  0  0  0  0  0  0  0  0  0  0
  -22.5869   38.0528  -22.1514 C   0  0  0  0  0  0  0  0  0  0  0  0
  -23.8541   37.3938  -22.4395 C   0  0  0  0  0  0  0  0  0  0  0  0
  -24.2507   36.4445  -21.7216 O   0  0  0  0  0  0  0  0  0  0  0  0
  -24.5989   37.8429  -23.5183 O   0  0  0  0  0  1  0  0  0  0  0  0
  -22.1218   39.0981  -22.9194 C   0  0  0  0  0  0  0  0  0  0  0  0
  -20.9163   39.7253  -22.6456 C   0  0  0  0  0  0  0  0  0  0  0  0
  -20.4832   40.6843  -23.3453 O   0  0  0  0  0  0  0  0  0  0  0  0
  -20.1861   39.2726  -21.5745 C   0  0  0  0  0  0  0  0  0  0  0  0
  -16.2136   45.7166  -20.6848 C   0  0  0  0  0  0  0  0  0  0  0  0
  -16.3871   46.7762  -19.8045 C   0  0  0  0  0  0  0  0  0  0  0  0
  -15.7502   46.7666  -18.5805 C   0  0  0  0  0  0  0  0  0  0  0  0
  -14.9363   45.7001  -18.2271 C   0  0  0  0  0  0  0  0  0  0  0  0
  -14.3161   45.6692  -17.0612 O   0  0  0  0  0  0  0  0  0  0  0  0
  -17.4901   42.0281  -20.4188 Na  0  0  0  0  0 15  0  0  0  0  0  0
  -17.4901   42.0281  -20.4188 Na  0  0  0  0  0 15  0  0  0  0  0  0
  1  2  2  0
  2  3  1  0
  2  4  1  0
  4  5  2  0
  5  6  1  0
  6  7  2  0
  6  8  1  0
  8  9  2  0
  9 10  1  0
 10 11  1  0
 11 12  1  0
 12 13  1  0
 12 14  1  0
 14 15  1  0
 15 16  1  0
 16 17  2  0
 17 18  1  0
 18 19  2  0
 19 20  1  0
 20 21  1  0
 21 22  1  0
 22 23  1  0
 23 24  2  0
 23 25  1  0
 22 26  2  0
 26 27  1  0
 27 28  2  0
 27 29  1  0
  9 30  1  0
 30 31  2  0
 31 32  1  0
 32 33  2  0
 33 34  1  0
 34  4  1  0
 33  8  1  0
 29 16  1  0
 29 20  2  0
M  CHG  4   3  -1  25  -1  35   1  36   1
M  END
$$$$
