
     RDKit          3D

 32 36  0  0  0  0  0  0  0  0999 V2000
  -16.3504   17.9838  -33.8228 N   0  0  0  0  0  0  0  0  0  0  0  0
  -16.5275   17.2658  -32.6118 C   0  0  0  0  0  0  0  0  0  0  0  0
  -16.7206   16.0186  -32.4440 N   0  0  0  0  0  0  0  0  0  0  0  0
  -16.8585   15.6425  -31.0580 C   0  0  1  0  0  0  0  0  0  0  0  0
  -18.1497   14.9700  -30.8747 C   0  0  0  0  0  0  0  0  0  0  0  0
  -18.2035   13.6031  -31.0199 C   0  0  0  0  0  0  0  0  0  0  0  0
  -19.3744   12.8878  -30.8706 C   0  0  0  0  0  0  0  0  0  0  0  0
  -20.5204   13.6142  -30.5619 C   0  0  0  0  0  0  0  0  0  0  0  0
  -20.5213   14.9851  -30.4055 C   0  0  0  0  0  0  0  0  0  0  0  0
  -21.7086   15.7634  -30.0832 C   0  0  0  0  0  0  0  0  0  0  0  0
  -22.6240   15.4095  -29.1438 C   0  0  0  0  0  0  0  0  0  0  0  0
  -23.6899   16.2130  -28.9300 N   0  0  0  0  0  0  0  0  0  0  0  0
  -23.8861   17.3439  -29.6023 C   0  0  0  0  0  0  0  0  0  0  0  0
  -22.9927   17.7165  -30.5387 N   0  0  0  0  0  0  0  0  0  0  0  0
  -21.9127   16.9371  -30.7806 C   0  0  0  0  0  0  0  0  0  0  0  0
  -19.3153   15.6341  -30.5693 C   0  0  0  0  0  0  0  0  0  0  0  0
  -15.7202   14.6938  -30.7773 C   0  0  0  0  0  0  0  0  0  0  0  0
  -14.9439   14.2186  -31.7840 C   0  0  0  0  0  0  0  0  0  0  0  0
  -13.8994   13.3368  -31.4933 C   0  0  0  0  0  0  0  0  0  0  0  0
  -13.6408   12.9439  -30.2335 N   0  0  0  0  0  0  0  0  0  0  0  0
  -14.4031   13.4056  -29.2089 C   0  0  0  0  0  0  0  0  0  0  0  0
  -14.1700   13.0129  -27.8119 C   0  0  0  0  0  0  0  0  0  0  0  0
  -15.0409   12.0206  -27.3999 F   0  0  0  0  0  0  0  0  0  0  0  0
  -12.8615   12.5326  -27.6621 F   0  0  0  0  0  0  0  0  0  0  0  0
  -15.4339   14.2757  -29.4965 C   0  0  0  0  0  0  0  0  0  0  0  0
  -16.7053   16.9037  -30.3442 C   0  0  0  0  0  0  0  0  0  0  0  0
  -16.7296   17.2160  -28.9803 C   0  0  0  0  0  0  0  0  0  0  0  0
  -16.5550   18.5192  -28.5901 C   0  0  0  0  0  0  0  0  0  0  0  0
  -16.3547   19.5292  -29.5301 C   0  0  0  0  0  0  0  0  0  0  0  0
  -16.3323   19.2100  -30.8717 C   0  0  0  0  0  0  0  0  0  0  0  0
  -16.1400   20.1628  -31.8247 F   0  0  0  0  0  0  0  0  0  0  0  0
  -16.5091   17.8824  -31.2928 C   0  0  0  0  0  0  0  0  0  0  0  0
  1  2  1  0
  2  3  2  0
  3  4  1  0
  4  5  1  6
  5  6  2  0
  6  7  1  0
  7  8  2  0
  8  9  1  0
  9 10  1  0
 10 11  2  0
 11 12  1  0
 12 13  2  0
 13 14  1  0
 14 15  2  0
  9 16  2  0
  4 17  1  0
 17 18  2  0
 18 19  1  0
 19 20  2  0
 20 21  1  0
 21 22  1  0
 22 23  1  0
 22 24  1  0
 21 25  2  0
  4 26  1  0
 26 27  2  0
 27 28  1  0
 28 29  2  0
 29 30  1  0
 30 31  1  0
 30 32  2  0
 32  2  1  0
 16  5  1  0
 25 17  1  0
 32 26  1  0
 15 10  1  0
M  END
$$$$
