
     RDKit          3D

 28 30  0  0  0  0  0  0  0  0999 V2000
  -25.1828   12.5767  -25.4441 C   0  0  0  0  0  0  0  0  0  0  0  0
  -25.6051   11.9475  -24.0988 C   0  0  0  0  0  0  0  0  0  0  0  0
  -25.7085   10.4621  -24.3972 C   0  0  0  0  0  0  0  0  0  0  0  0
  -26.9145   12.5469  -23.6507 C   0  0  0  0  0  0  0  0  0  0  0  0
  -27.0012   12.5701  -22.1640 C   0  0  0  0  0  0  0  0  0  0  0  0
  -28.3189   12.9401  -21.6872 N   0  0  0  0  0  0  0  0  0  0  0  0
  -28.6733   14.3355  -21.7622 C   0  0  0  0  0  0  0  0  0  0  0  0
  -27.7609   15.2747  -22.0343 N   0  0  0  0  0  0  0  0  0  0  0  0
  -28.0626   16.6096  -22.1155 C   0  0  0  0  0  0  0  0  0  0  0  0
  -27.0215   17.5243  -22.4012 N   0  0  0  0  0  0  0  0  0  0  0  0
  -25.6782   17.1738  -22.5730 C   0  0  0  0  0  0  0  0  0  0  0  0
  -24.6464   17.9655  -22.9816 C   0  0  0  0  0  0  0  0  0  0  0  0
  -23.3471   17.4467  -23.0851 C   0  0  0  0  0  0  0  0  0  0  0  0
  -22.3643   18.2740  -23.4941 F   0  0  0  0  0  0  0  0  0  0  0  0
  -23.0562   16.1423  -22.7867 C   0  0  0  0  0  0  0  0  0  0  0  0
  -21.7722   15.6170  -22.8857 O   0  0  0  0  0  0  0  0  0  0  0  0
  -24.0837   15.3350  -22.3754 C   0  0  0  0  0  0  0  0  0  0  0  0
  -23.7978   14.0372  -22.0776 F   0  0  0  0  0  0  0  0  0  0  0  0
  -25.3435   15.8421  -22.2757 C   0  0  0  0  0  0  0  0  0  0  0  0
  -29.3285   16.9683  -21.9107 N   0  0  0  0  0  0  0  0  0  0  0  0
  -30.2907   16.0989  -21.6364 C   0  0  0  0  0  0  0  0  0  0  0  0
  -29.9719   14.7443  -21.5566 C   0  0  0  0  0  0  0  0  0  0  0  0
  -30.9888   13.8030  -21.2692 N   0  0  0  0  0  0  0  0  0  0  0  0
  -32.3294   14.2259  -21.0518 C   0  0  0  0  0  0  0  0  0  0  0  0
  -30.6567   12.4317  -21.1969 C   0  0  0  0  0  0  0  0  0  0  0  0
  -31.5929   11.5368  -21.1751 O   0  0  0  0  0  0  0  0  0  0  0  0
  -29.2512   11.9783  -21.1446 C   0  0  0  0  0  0  0  0  0  0  0  0
  -28.9427   11.6552  -19.6961 C   0  0  0  0  0  0  0  0  0  0  0  0
  1  2  1  0
  2  3  1  0
  2  4  1  0
  4  5  1  0
  5  6  1  0
  6  7  1  0
  7  8  2  0
  8  9  1  0
  9 10  1  0
 10 11  1  0
 11 12  2  0
 12 13  1  0
 13 14  1  0
 13 15  2  0
 15 16  1  0
 15 17  1  0
 17 18  1  0
 17 19  2  0
  9 20  2  0
 20 21  1  0
 21 22  2  0
 22 23  1  0
 23 24  1  0
 23 25  1  0
 25 26  2  0
 25 27  1  0
 27 28  1  0
 27  6  1  0
 22  7  1  0
 19 11  1  0
M  END
$$$$
