
     RDKit          3D

 29 31  0  0  0  0  0  0  0  0999 V2000
  -10.3839   18.6980  -42.2560 C   0  0  0  0  0  0  0  0  0  0  0  0
  -11.6625   18.5681  -41.5256 C   0  0  0  0  0  0  0  0  0  0  0  0
  -11.6648   18.0504  -40.2510 C   0  0  0  0  0  0  0  0  0  0  0  0
  -12.8715   17.9310  -39.5693 C   0  0  0  0  0  0  0  0  0  0  0  0
  -14.0384   18.3343  -40.1865 C   0  0  0  0  0  0  0  0  0  0  0  0
  -15.2717   18.1977  -39.4540 N   0  0  0  0  0  0  0  0  0  0  0  0
  -15.5503   16.9737  -38.8073 C   0  0  0  0  0  0  0  0  0  0  0  0
  -14.6139   16.1024  -38.8030 O   0  0  0  0  0  0  0  0  0  0  0  0
  -16.8310   16.6773  -38.1632 C   0  0  0  0  0  0  0  0  0  0  0  0
  -17.4257   15.4422  -38.2515 C   0  0  0  0  0  0  0  0  0  0  0  0
  -18.6527   15.1832  -37.6255 C   0  0  0  0  0  0  0  0  0  0  0  0
  -19.3036   16.1551  -36.9019 C   0  0  0  0  0  0  0  0  0  0  0  0
  -18.7031   17.3942  -36.8156 C   0  0  0  0  0  0  0  0  0  0  0  0
  -19.3876   18.3949  -36.0622 N   0  0  0  0  0  0  0  0  0  0  0  0
  -20.4088   18.0753  -35.0913 C   0  0  0  0  0  0  0  0  0  0  0  0
  -19.0203   19.7739  -36.3044 C   0  0  0  0  0  0  0  0  0  0  0  0
  -17.4982   17.6391  -37.4336 C   0  0  0  0  0  0  0  0  0  0  0  0
  -14.0015   18.8490  -41.4648 C   0  0  0  0  0  0  0  0  0  0  0  0
  -12.8133   18.9806  -42.1706 C   0  0  0  0  0  0  0  0  0  0  0  0
  -12.7639   19.5109  -43.4914 N   0  0  0  0  0  0  0  0  0  0  0  0
  -12.9938   20.8964  -43.6974 C   0  0  0  0  0  0  0  0  0  0  0  0
  -13.2734   21.5899  -42.7040 O   0  0  0  0  0  0  0  0  0  0  0  0
  -12.9058   21.4884  -45.0269 C   0  0  0  0  0  0  0  0  0  0  0  0
  -12.5103   20.7952  -46.1318 C   0  0  0  0  0  0  0  0  0  0  0  0
  -12.4255   21.3617  -47.4069 C   0  0  0  0  0  0  0  0  0  0  0  0
  -12.7579   22.6878  -47.5583 C   0  0  0  0  0  0  0  0  0  0  0  0
  -12.6943   23.3082  -48.7984 O   0  0  0  0  0  0  0  0  0  0  0  0
  -13.1614   23.3983  -46.4355 C   0  0  0  0  0  0  0  0  0  0  0  0
  -13.2374   22.8195  -45.1894 C   0  0  0  0  0  0  0  0  0  0  0  0
  1  2  1  0
  2  3  2  0
  3  4  1  0
  4  5  2  0
  5  6  1  0
  6  7  1  0
  7  8  2  0
  7  9  1  0
  9 10  2  0
 10 11  1  0
 11 12  2  0
 12 13  1  0
 13 14  1  0
 14 15  1  0
 14 16  1  0
 13 17  2  0
  5 18  1  0
 18 19  2  0
 19 20  1  0
 20 21  1  0
 21 22  2  0
 21 23  1  0
 23 24  2  0
 24 25  1  0
 25 26  2  0
 26 27  1  0
 26 28  1  0
 28 29  2  0
 19  2  1  0
 29 23  1  0
 17  9  1  0
M  END
$$$$
