
     RDKit          3D

 30 34  0  0  0  0  0  0  0  0999 V2000
  -11.6033   -1.3483  -35.1318 C   0  0  0  0  0  0  0  0  0  0  0  0
  -12.9657   -1.6218  -34.6969 N   0  0  0  0  0  0  0  0  0  0  0  0
  -13.2547   -0.9586  -33.4385 C   0  0  0  0  0  0  0  0  0  0  0  0
  -14.7124   -1.1584  -33.1225 C   0  0  2  0  0  0  0  0  0  0  0  0
  -14.9863   -0.5178  -31.7803 C   0  0  0  0  0  0  0  0  0  0  0  0
  -16.2839    0.0661  -31.6926 N   0  0  0  0  0  0  0  0  0  0  0  0
  -17.4361   -0.6635  -31.2651 C   0  0  0  0  0  0  0  0  0  0  0  0
  -17.3594   -1.4098  -30.2739 O   0  0  0  0  0  0  0  0  0  0  0  0
  -18.6060   -0.5291  -31.9535 O   0  0  0  0  0  0  0  0  0  0  0  0
  -19.7273    0.1985  -31.5440 C   0  0  0  0  0  0  0  0  0  0  0  0
  -19.8461    1.5441  -32.1156 C   0  0  0  0  0  0  0  0  0  0  0  0
  -19.9797    2.6309  -31.2456 C   0  0  0  0  0  0  0  0  0  0  0  0
  -20.1052    3.8760  -31.7823 C   0  0  0  0  0  0  0  0  0  0  0  0
  -20.1063    4.1104  -33.1376 C   0  0  0  0  0  0  0  0  0  0  0  0
  -19.9732    3.0170  -33.9569 C   0  0  0  0  0  0  0  0  0  0  0  0
  -19.8423    1.7273  -33.4622 C   0  0  0  0  0  0  0  0  0  0  0  0
  -15.1106   -2.6062  -33.0405 C   0  0  0  0  0  0  0  0  0  0  0  0
  -14.3789   -3.5132  -33.9598 C   0  0  2  0  0  0  0  0  0  0  0  0
  -14.2321   -4.8972  -33.4637 C   0  0  0  0  0  0  0  0  0  0  0  0
  -15.0003   -5.4349  -32.4226 C   0  0  0  0  0  0  0  0  0  0  0  0
  -14.7648   -6.7489  -32.0658 C   0  0  0  0  0  0  0  0  0  0  0  0
  -13.8021   -7.5194  -32.7104 C   0  0  0  0  0  0  0  0  0  0  0  0
  -13.0470   -6.9869  -33.7356 C   0  0  0  0  0  0  0  0  0  0  0  0
  -13.2928   -5.6893  -34.0739 C   0  0  0  0  0  0  0  0  0  0  0  0
  -12.4769   -5.2755  -35.1078 C   0  0  0  0  0  0  0  0  0  0  0  0
  -11.7079   -6.3759  -35.4022 C   0  0  0  0  0  0  0  0  0  0  0  0
  -12.0626   -7.4021  -34.5659 N   0  0  0  0  0  0  0  0  0  0  0  0
  -11.4934   -8.7151  -34.5561 C   0  0  0  0  0  0  0  0  0  0  0  0
  -12.5957   -3.8598  -35.6204 C   0  0  0  0  0  0  0  0  0  0  0  0
  -13.0436   -3.0373  -34.4109 C   0  0  1  0  0  0  0  0  0  0  0  0
  1  2  1  0
  2  3  1  0
  3  4  1  0
  4  5  1  1
  5  6  1  0
  6  7  1  0
  7  8  2  0
  7  9  1  0
  9 10  1  0
 10 11  1  0
 11 12  2  0
 12 13  1  0
 13 14  2  0
 14 15  1  0
 15 16  2  0
  4 17  1  0
 18 17  1  1
 18 19  1  0
 19 20  2  0
 20 21  1  0
 21 22  2  0
 22 23  1  0
 23 24  2  0
 24 25  1  0
 25 26  2  0
 26 27  1  0
 27 28  1  0
 25 29  1  0
 30 29  1  6
 30  2  1  0
 16 11  1  0
 30 18  1  0
 24 19  1  0
 27 23  1  0
M  END
$$$$
