
     RDKit          3D

 27 29  0  0  0  0  0  0  0  0999 V2000
  -31.5255   14.7704  -16.2300 C   0  0  0  0  0  0  0  0  0  0  0  0
  -31.0908   14.6310  -17.6451 C   0  0  0  0  0  0  0  0  0  0  0  0
  -31.5327   13.5517  -18.4188 C   0  0  0  0  0  0  0  0  0  0  0  0
  -31.1198   13.4368  -19.7326 C   0  0  0  0  0  0  0  0  0  0  0  0
  -31.5575   12.3810  -20.5432 N   0  0  0  0  0  0  0  0  0  0  0  0
  -32.1196   11.1685  -20.0799 C   0  0  0  0  0  0  0  0  0  0  0  0
  -33.3763   11.1948  -19.5374 C   0  0  0  0  0  0  0  0  0  0  0  0
  -33.9021    9.9795  -19.0605 C   0  0  0  0  0  0  0  0  0  0  0  0
  -33.2470    8.7702  -19.1018 C   0  0  0  0  0  0  0  0  0  0  0  0
  -34.0336    7.2377  -18.6510 S   0  0  0  0  0  6  0  0  0  0  0  0
  -35.1570    6.6783  -20.7147 F   0  0  0  0  0  0  0  0  0  0  0  0
  -35.8443    6.9018  -18.7850 F   0  0  0  0  0  0  0  0  0  0  0  0
  -32.9843    5.4867  -18.7008 F   0  0  0  0  0  0  0  0  0  0  0  0
  -33.0617    6.4392  -20.6291 F   0  0  0  0  0  0  0  0  0  0  0  0
  -34.1827    6.8097  -17.4935 F   0  0  0  0  0  0  0  0  0  0  0  0
  -32.0298    8.7914  -19.6337 C   0  0  0  0  0  0  0  0  0  0  0  0
  -31.4410    9.9761  -20.1311 C   0  0  0  0  0  0  0  0  0  0  0  0
  -30.2900   14.3558  -20.2852 N   0  0  0  0  0  0  0  0  0  0  0  0
  -29.7713   14.4546  -21.4927 N   0  0  0  0  0  0  0  0  0  0  0  0
  -28.9949   15.5636  -21.5585 C   0  0  0  0  0  0  0  0  0  0  0  0
  -28.2225   16.0412  -22.7573 C   0  0  0  0  0  0  0  0  0  0  0  0
  -28.2683   15.0448  -23.8688 C   0  0  0  0  0  0  0  0  0  0  0  0
  -26.9080   16.2094  -22.3685 F   0  0  0  0  0  0  0  0  0  0  0  0
  -28.6883   17.2679  -23.1716 F   0  0  0  0  0  0  0  0  0  0  0  0
  -29.0736   16.1213  -20.3377 N   0  0  0  0  0  0  0  0  0  0  0  0
  -29.8710   15.3871  -19.5366 C   0  0  0  0  0  0  0  0  0  0  0  0
  -30.2724   15.5086  -18.2436 N   0  0  0  0  0  0  0  0  0  0  0  0
  1  2  1  0
  2  3  1  0
  3  4  2  0
  4  5  1  0
  5  6  1  0
  6  7  2  0
  7  8  1  0
  8  9  2  0
  9 10  1  0
 10 11  1  0
 10 12  1  0
 10 13  1  0
 10 14  1  0
 10 15  1  0
  9 16  1  0
 16 17  2  0
  4 18  1  0
 18 19  1  0
 19 20  2  0
 20 21  1  0
 21 22  1  0
 21 23  1  0
 21 24  1  0
 20 25  1  0
 25 26  2  0
 26 27  1  0
 27  2  2  0
 17  6  1  0
 26 18  1  0
M  END
$$$$
