
     RDKit          3D

 21 22  0  0  0  0  0  0  0  0999 V2000
  -28.9124   24.0559  -37.9780 C   0  0  0  0  0  0  0  0  0  0  0  0
  -28.4347   25.0597  -37.1425 O   0  0  0  0  0  0  0  0  0  0  0  0
  -27.1506   25.2528  -36.7227 C   0  0  0  0  0  0  0  0  0  0  0  0
  -26.1639   24.3824  -37.1279 C   0  0  0  0  0  0  0  0  0  0  0  0
  -24.8278   24.5287  -36.7308 C   0  0  0  0  0  0  0  0  0  0  0  0
  -23.7994   23.5611  -37.2038 C   0  0  0  0  0  0  0  0  0  0  0  0
  -23.2446   23.8937  -38.5308 C   0  0  0  0  0  0  0  0  0  0  0  0
  -22.4878   25.0671  -38.6358 C   0  0  0  0  0  0  0  0  0  0  0  0
  -21.9962   25.3765  -39.8453 N   0  0  0  0  0  0  0  0  0  0  0  0
  -22.1582   24.6749  -40.9577 C   0  0  0  0  0  0  0  0  0  0  0  0
  -21.6094   25.0533  -42.2133 N   0  0  0  0  0  0  0  0  0  0  0  0
  -22.8856   23.5400  -40.8747 N   0  0  0  0  0  0  0  0  0  0  0  0
  -23.4132   23.1686  -39.6749 C   0  0  0  0  0  0  0  0  0  0  0  0
  -24.1597   21.9684  -39.6285 N   0  0  0  0  0  0  0  0  0  0  0  0
  -24.5389   25.5930  -35.9082 C   0  0  0  0  0  0  0  0  0  0  0  0
  -25.5112   26.5013  -35.4721 C   0  0  0  0  0  0  0  0  0  0  0  0
  -25.1989   27.5545  -34.6502 O   0  0  0  0  0  0  0  0  0  0  0  0
  -23.8864   27.8297  -34.1961 C   0  0  0  0  0  0  0  0  0  0  0  0
  -26.8062   26.3016  -35.8982 C   0  0  0  0  0  0  0  0  0  0  0  0
  -27.8177   27.1645  -35.5035 O   0  0  0  0  0  0  0  0  0  0  0  0
  -28.5212   26.8888  -34.3035 C   0  0  0  0  0  0  0  0  0  0  0  0
  1  2  1  0
  2  3  1  0
  3  4  2  0
  4  5  1  0
  5  6  1  0
  6  7  1  0
  7  8  2  0
  8  9  1  0
  9 10  2  0
 10 11  1  0
 10 12  1  0
 12 13  2  0
 13 14  1  0
  5 15  2  0
 15 16  1  0
 16 17  1  0
 17 18  1  0
 16 19  2  0
 19 20  1  0
 20 21  1  0
 19  3  1  0
 13  7  1  0
M  END
$$$$
