
     RDKit          3D

 32 36  0  0  0  0  0  0  0  0999 V2000
  -13.9900   48.1601  -12.6542 C   0  0  0  0  0  0  0  0  0  0  0  0
  -14.1138   48.2189  -14.0701 N   0  0  0  0  0  0  0  0  0  0  0  0
  -12.9330   47.9469  -14.8209 C   0  0  0  0  0  0  0  0  0  0  0  0
  -12.8016   46.5122  -15.2237 C   0  0  0  0  0  0  0  0  0  0  0  0
  -13.9427   46.1153  -15.9783 N   0  0  0  0  0  0  0  0  0  0  0  0
  -14.0231   46.6558  -17.2980 C   0  0  0  0  0  0  0  0  0  0  0  0
  -14.6185   45.6863  -18.2310 C   0  0  0  0  0  0  0  0  0  0  0  0
  -15.9815   45.6087  -18.3455 C   0  0  0  0  0  0  0  0  0  0  0  0
  -16.5762   44.7028  -19.2217 C   0  0  0  0  0  0  0  0  0  0  0  0
  -15.7966   43.8637  -19.9932 C   0  0  0  0  0  0  0  0  0  0  0  0
  -16.3249   42.9165  -20.9093 N   0  0  0  0  0  0  0  0  0  0  0  0
  -16.9352   41.7014  -20.5021 C   0  0  0  0  0  0  0  0  0  0  0  0
  -17.3166   41.6411  -19.3229 O   0  0  0  0  0  0  0  0  0  0  0  0
  -17.1045   40.5770  -21.4316 C   0  0  0  0  0  0  0  0  0  0  0  0
  -16.1279   40.1954  -22.3248 N   0  0  0  0  0  0  0  0  0  0  0  0
  -16.5500   39.1814  -23.0496 N   0  0  0  0  0  0  0  0  0  0  0  0
  -17.7866   38.8702  -22.6666 C   0  0  0  0  0  0  0  0  0  0  0  0
  -18.1435   39.7334  -21.6572 C   0  0  0  0  0  0  0  0  0  0  0  0
  -19.3881   39.6873  -21.0363 N   0  0  0  0  0  0  0  0  0  0  0  0
  -20.4358   38.7815  -21.1376 C   0  0  0  0  0  0  0  0  0  0  0  0
  -21.7151   39.0589  -21.3934 N   0  0  0  0  0  0  0  0  0  0  0  0
  -22.6784   38.1293  -21.4795 C   0  0  0  0  0  0  0  0  0  0  0  0
  -22.3829   36.8322  -21.3049 N   0  0  0  0  0  0  0  0  0  0  0  0
  -21.1221   36.4476  -21.0422 C   0  0  0  0  0  0  0  0  0  0  0  0
  -20.5413   35.2344  -20.8242 N   0  0  0  0  0  0  0  0  0  0  0  0
  -19.2332   35.4349  -20.6079 C   0  0  0  0  0  0  0  0  0  0  0  0
  -18.9436   36.7880  -20.6826 C   0  0  0  0  0  0  0  0  0  0  0  0
  -20.1355   37.4230  -20.9562 C   0  0  0  0  0  0  0  0  0  0  0  0
  -14.4309   43.9635  -19.8576 C   0  0  0  0  0  0  0  0  0  0  0  0
  -13.8297   44.8621  -18.9882 C   0  0  0  0  0  0  0  0  0  0  0  0
  -15.1333   46.3038  -15.2172 C   0  0  0  0  0  0  0  0  0  0  0  0
  -15.3092   47.6575  -14.6107 C   0  0  0  0  0  0  0  0  0  0  0  0
  1  2  1  0
  2  3  1  0
  3  4  1  0
  4  5  1  0
  5  6  1  0
  6  7  1  0
  7  8  2  0
  8  9  1  0
  9 10  2  0
 10 11  1  0
 11 12  1  0
 12 13  2  0
 12 14  1  0
 14 15  2  0
 15 16  1  0
 16 17  1  0
 17 18  2  0
 18 19  1  0
 19 20  1  0
 20 21  2  0
 21 22  1  0
 22 23  2  0
 23 24  1  0
 24 25  1  0
 25 26  1  0
 26 27  2  0
 27 28  1  0
 10 29  1  0
 29 30  2  0
  5 31  1  0
 31 32  1  0
 32  2  1  0
 30  7  1  0
 18 14  1  0
 28 20  1  0
 28 24  2  0
M  END
$$$$
