
     RDKit          3D

 35 36  0  0  0  0  0  0  0  0999 V2000
    3.2267   21.4337  -19.6084 Cl  0  0  0  0  0  0  0  0  0  0  0  0
    3.2252   21.4286  -19.6124 Cl  0  0  0  0  0  0  0  0  0  0  0  0
   -2.6186   14.9863  -21.3790 F   0  0  0  0  0  0  0  0  0  0  0  0
   -1.4014   15.5615  -21.6393 C   0  0  0  0  0  0  0  0  0  0  0  0
   -0.2391   15.0741  -21.0876 C   0  0  0  0  0  0  0  0  0  0  0  0
    0.9793   15.6381  -21.3405 C   0  0  0  0  0  0  0  0  0  0  0  0
    1.0904   16.7444  -22.1794 C   0  0  0  0  0  0  0  0  0  0  0  0
    2.4320   17.3463  -22.4395 C   0  0  0  0  0  0  0  0  0  0  0  0
    2.3102   18.7234  -22.3515 O   0  0  0  0  0  0  0  0  0  0  0  0
    3.0156   19.1563  -21.2265 C   0  0  0  0  0  0  0  0  0  0  0  0
    2.9686   20.6583  -21.1567 C   0  0  0  0  0  0  0  0  0  0  0  0
    3.6832   21.1539  -20.0022 N   0  0  0  0  0  0  0  0  0  0  0  0
    3.8912   22.5724  -20.0475 C   0  0  0  0  0  0  0  0  0  0  0  0
    2.8765   23.2668  -19.2376 C   0  0  0  0  0  0  0  0  0  0  0  0
    2.9510   22.9148  -17.8853 N   0  0  0  0  0  0  0  0  0  0  0  0
    3.6170   23.7300  -16.9610 C   0  0  0  0  0  0  0  0  0  0  0  0
    5.0947   23.8397  -17.0244 C   0  0  0  0  0  0  0  0  0  0  0  0
    5.6169   24.7402  -15.9258 C   0  0  0  0  0  0  0  0  0  0  0  0
    5.1405   26.1195  -15.9837 C   0  0  0  0  0  0  0  0  0  0  0  0
    5.7960   27.1404  -16.6377 C   0  0  0  0  0  0  0  0  0  0  0  0
    5.2845   28.4196  -16.6584 C   0  0  0  0  0  0  0  0  0  0  0  0
    4.0949   28.7238  -16.0227 C   0  0  0  0  0  0  0  0  0  0  0  0
    3.4420   27.7078  -15.3723 C   0  0  0  0  0  0  0  0  0  0  0  0
    3.9507   26.4322  -15.3512 C   0  0  0  0  0  0  0  0  0  0  0  0
    3.0082   21.5081  -17.6238 C   0  0  0  0  0  0  0  0  0  0  0  0
    3.2434   20.6312  -18.7726 C   0  0  0  0  0  0  0  0  0  0  0  0
    2.9839   16.9133  -23.7347 C   0  0  0  0  0  0  0  0  0  0  0  0
    2.4472   15.8434  -24.4149 C   0  0  0  0  0  0  0  0  0  0  0  0
    2.9934   15.4658  -25.6499 C   0  0  0  0  0  0  0  0  0  0  0  0
    4.0646   16.1440  -26.2063 C   0  0  0  0  0  0  0  0  0  0  0  0
    4.5702   15.7529  -27.4039 F   0  0  0  0  0  0  0  0  0  0  0  0
    4.5833   17.2108  -25.5044 C   0  0  0  0  0  0  0  0  0  0  0  0
    4.0395   17.5871  -24.2760 C   0  0  0  0  0  0  0  0  0  0  0  0
   -0.0517   17.2565  -22.7474 C   0  0  0  0  0  0  0  0  0  0  0  0
   -1.2857   16.6677  -22.4775 C   0  0  0  0  0  0  0  0  0  0  0  0
  3  4  1  0
  4  5  2  0
  5  6  1  0
  6  7  2  0
  7  8  1  0
  8  9  1  0
  9 10  1  0
 10 11  1  0
 11 12  1  0
 12 13  1  0
 13 14  1  0
 14 15  1  0
 15 16  1  0
 16 17  1  0
 17 18  1  0
 18 19  1  0
 19 20  2  0
 20 21  1  0
 21 22  2  0
 22 23  1  0
 23 24  2  0
 15 25  1  0
 25 26  1  0
  8 27  1  0
 27 28  2  0
 28 29  1  0
 29 30  2  0
 30 31  1  0
 30 32  1  0
 32 33  2  0
  7 34  1  0
 34 35  2  0
 35  4  1  0
 26 12  1  0
 33 27  1  0
 24 19  1  0
M  END
$$$$
