
     RDKit          3D

 35 38  0  0  0  0  0  0  0  0999 V2000
  -22.0903   30.9823  -22.3444 O   0  0  0  0  0  0  0  0  0  0  0  0
  -21.4956   31.9522  -21.8116 C   0  0  0  0  0  0  0  0  0  0  0  0
  -21.8130   32.3203  -20.5262 O   0  0  0  0  0  0  0  0  0  0  0  0
  -20.4498   32.6873  -22.5892 C   0  0  0  0  0  0  0  0  0  0  0  0
  -19.4928   33.2862  -21.7536 O   0  0  0  0  0  0  0  0  0  0  0  0
  -19.7104   34.6006  -21.3283 C   0  0  0  0  0  0  0  0  0  0  0  0
  -20.9074   35.2427  -21.3566 C   0  0  0  0  0  0  0  0  0  0  0  0
  -21.0881   36.5526  -20.9219 C   0  0  0  0  0  0  0  0  0  0  0  0
  -20.0090   37.2246  -20.4446 C   0  0  0  0  0  0  0  0  0  0  0  0
  -20.0674   38.6062  -19.9627 C   0  0  0  0  0  0  0  0  0  0  0  0
  -19.1651   39.4562  -20.2425 N   0  0  0  0  0  0  0  0  0  0  0  0
  -19.1511   40.8049  -19.9406 N   0  0  0  0  0  0  0  0  0  0  0  0
  -17.9286   41.5173  -19.9123 C   0  0  0  0  0  0  0  0  0  0  0  0
  -16.9005   40.9364  -19.4973 O   0  0  0  0  0  0  0  0  0  0  0  0
  -17.8265   42.9115  -20.3526 C   0  0  0  0  0  0  0  0  0  0  0  0
  -18.6618   43.4612  -21.2821 C   0  0  0  0  0  0  0  0  0  0  0  0
  -18.5248   44.7997  -21.6715 C   0  0  0  0  0  0  0  0  0  0  0  0
  -17.5523   45.6036  -21.1376 C   0  0  0  0  0  0  0  0  0  0  0  0
  -17.4044   47.0290  -21.5587 C   0  0  0  0  0  0  0  0  0  0  0  0
  -17.0883   48.0299  -20.6221 C   0  0  0  0  0  0  0  0  0  0  0  0
  -17.0349   49.5173  -21.6273 S   0  0  0  0  0  0  0  0  0  0  0  0
  -17.4529   48.5617  -23.1875 C   0  0  0  0  0  0  0  0  0  0  0  0
  -17.5602   49.3053  -24.4529 N   0  0  0  0  0  0  0  0  0  0  0  0
  -16.6213   49.0990  -25.4522 C   0  0  0  0  0  0  0  0  0  0  0  0
  -16.4950   47.8513  -26.0284 C   0  0  0  0  0  0  0  0  0  0  0  0
  -15.5577   47.5812  -27.0148 C   0  0  0  0  0  0  0  0  0  0  0  0
  -14.7376   48.6115  -27.4144 C   0  0  0  0  0  0  0  0  0  0  0  0
  -13.5405   48.3072  -28.6599 Cl  0  0  0  0  0  0  0  0  0  0  0  0
  -14.8390   49.8630  -26.8599 C   0  0  0  0  0  0  0  0  0  0  0  0
  -15.7885   50.0999  -25.8733 C   0  0  0  0  0  0  0  0  0  0  0  0
  -17.5439   47.4987  -22.7758 N   0  0  0  0  0  0  0  0  0  0  0  0
  -16.7096   45.0572  -20.2033 C   0  0  0  0  0  0  0  0  0  0  0  0
  -16.8475   43.7185  -19.8139 C   0  0  0  0  0  0  0  0  0  0  0  0
  -18.7766   36.5798  -20.4100 C   0  0  0  0  0  0  0  0  0  0  0  0
  -18.6045   35.2909  -20.8386 C   0  0  0  0  0  0  0  0  0  0  0  0
  1  2  2  0
  2  3  1  0
  2  4  1  0
  4  5  1  0
  5  6  1  0
  6  7  2  0
  7  8  1  0
  8  9  2  0
  9 10  1  0
 10 11  2  0
 11 12  1  0
 12 13  1  0
 13 14  2  0
 13 15  1  0
 15 16  2  0
 16 17  1  0
 17 18  2  0
 18 19  1  0
 19 20  2  0
 20 21  1  0
 21 22  1  0
 22 23  1  0
 23 24  1  0
 24 25  2  0
 25 26  1  0
 26 27  2  0
 27 28  1  0
 27 29  1  0
 29 30  2  0
 22 31  2  0
 18 32  1  0
 32 33  2  0
  9 34  1  0
 34 35  2  0
 35  6  1  0
 33 15  1  0
 31 19  1  0
 30 24  1  0
M  END
$$$$
