
     RDKit          3D

 23 23  0  0  0  0  0  0  0  0999 V2000
  -28.1621   11.6496  -24.4644 Cl  0  0  0  0  0  0  0  0  0  0  0  0
  -26.2482   11.2873  -23.2829 N   0  0  0  0  0  0  0  0  0  0  0  0
  -27.2931   11.6474  -23.9426 C   0  0  0  0  0  0  0  0  0  0  0  0
  -27.9304   10.7350  -24.8147 N   0  0  0  0  0  0  0  0  0  0  0  0
  -27.6027    9.3213  -24.7114 C   0  0  0  0  0  0  0  0  0  0  0  0
  -28.3588    8.5178  -25.6945 C   0  0  0  0  0  0  0  0  0  0  0  0
  -27.8312    8.2855  -26.9569 C   0  0  0  0  0  0  0  0  0  0  0  0
  -28.5124    7.5399  -27.8958 C   0  0  0  0  0  0  0  0  0  0  0  0
  -29.7460    7.0104  -27.5794 C   0  0  0  0  0  0  0  0  0  0  0  0
  -30.2731    7.2466  -26.3079 C   0  0  0  0  0  0  0  0  0  0  0  0
  -29.6045    7.9839  -25.3728 C   0  0  0  0  0  0  0  0  0  0  0  0
  -27.8194   12.9735  -23.7999 N   0  0  0  0  0  0  0  0  0  0  0  0
  -27.2003   13.9136  -22.9306 C   0  0  0  0  0  0  0  0  0  0  0  0
  -26.1824   13.5269  -22.3029 O   0  0  0  0  0  0  0  0  0  0  0  0
  -27.7300   15.2756  -22.7757 C   0  0  0  0  0  0  0  0  0  0  0  0
  -28.8183   15.6794  -23.4507 N   0  0  0  0  0  0  0  0  0  0  0  0
  -29.2734   16.9452  -23.2779 C   0  0  0  0  0  0  0  0  0  0  0  0
  -30.6953   17.5120  -24.1436 Cl  0  0  0  0  0  0  0  0  0  0  0  0
  -28.6624   17.8465  -22.4309 C   0  0  0  0  0  0  0  0  0  0  0  0
  -29.1734   19.1645  -22.2797 N   0  0  0  0  0  0  0  0  0  0  0  0
  -27.5617   17.4286  -21.7521 N   0  0  0  0  0  0  0  0  0  0  0  0
  -27.1172   16.1616  -21.9336 C   0  0  0  0  0  0  0  0  0  0  0  0
  -25.9510   15.7130  -21.2168 N   0  0  0  0  0  0  0  0  0  0  0  0
  2  3  2  0
  3  4  1  0
  4  5  1  0
  5  6  1  0
  6  7  2  0
  7  8  1  0
  8  9  2  0
  9 10  1  0
 10 11  2  0
  3 12  1  0
 12 13  1  0
 13 14  2  0
 13 15  1  0
 15 16  2  0
 16 17  1  0
 17 18  1  0
 17 19  2  0
 19 20  1  0
 19 21  1  0
 21 22  2  0
 22 23  1  0
 11  6  1  0
 22 15  1  0
M  END
$$$$
