
     RDKit          3D

 21 23  0  0  0  0  0  0  0  0999 V2000
  -19.4104   39.0163  -18.2575 N   0  0  0  0  0  0  0  0  0  0  0  0
  -19.3941   38.9679  -19.3766 C   0  0  0  0  0  0  0  0  0  0  0  0
  -19.3697   38.9114  -20.8868 C   0  0  0  0  0  0  0  0  0  0  0  0
  -18.7463   39.8625  -21.5341 C   0  0  0  0  0  0  0  0  0  0  0  0
  -18.0337   41.0462  -21.0847 N   0  0  0  0  0  0  0  0  0  0  0  0
  -17.7528   42.1227  -21.9097 C   0  0  0  0  0  0  0  0  0  0  0  0
  -18.0252   42.0117  -23.1438 O   0  0  0  0  0  0  0  0  0  0  0  0
  -17.1645   43.3456  -21.3902 C   0  0  0  0  0  0  0  0  0  0  0  0
  -17.5233   44.5698  -21.8744 C   0  0  0  0  0  0  0  0  0  0  0  0
  -16.9670   45.7550  -21.3787 C   0  0  0  0  0  0  0  0  0  0  0  0
  -16.0307   45.6208  -20.3675 C   0  0  0  0  0  0  0  0  0  0  0  0
  -15.4967   46.7811  -19.8922 F   0  0  0  0  0  0  0  0  0  0  0  0
  -15.6667   44.3985  -19.8773 C   0  0  0  0  0  0  0  0  0  0  0  0
  -16.2100   43.2488  -20.3623 C   0  0  0  0  0  0  0  0  0  0  0  0
  -18.9403   39.4275  -23.2515 S   0  0  0  0  0  0  0  0  0  0  0  0
  -19.8662   37.9685  -22.9334 C   0  0  0  0  0  0  0  0  0  0  0  0
  -19.9715   37.9001  -21.5515 C   0  0  0  0  0  0  0  0  0  0  0  0
  -20.7439   36.6980  -21.0554 C   0  0  0  0  0  0  0  0  0  0  0  0
  -20.3665   35.4662  -21.7953 C   0  0  0  0  0  0  0  0  0  0  0  0
  -19.9961   35.6122  -23.2187 C   0  0  0  0  0  0  0  0  0  0  0  0
  -20.4882   36.9050  -23.8017 C   0  0  0  0  0  0  0  0  0  0  0  0
  1  2  3  0
  2  3  1  0
  3  4  2  0
  4  5  1  0
  5  6  1  0
  6  7  2  0
  6  8  1  0
  8  9  2  0
  9 10  1  0
 10 11  2  0
 11 12  1  0
 11 13  1  0
 13 14  2  0
  4 15  1  0
 15 16  1  0
 16 17  2  0
 17 18  1  0
 18 19  1  0
 19 20  1  0
 20 21  1  0
 17  3  1  0
 14  8  1  0
 21 16  1  0
M  END
$$$$
