
     RDKit          3D

 19 19  0  0  0  0  0  0  0  0999 V2000
   -8.5273    1.6180  -33.7499 C   0  0  0  0  0  0  0  0  0  0  0  0
   -9.7337    2.4896  -33.4030 C   0  0  0  0  0  0  0  0  0  0  0  0
  -10.9780    1.7481  -33.8298 C   0  0  0  0  0  0  0  0  0  0  0  0
  -11.8660    1.5835  -32.6266 C   0  0  0  0  0  0  0  0  0  0  0  0
  -12.3510    0.2348  -32.5142 N   0  0  0  0  0  0  0  0  0  0  0  0
  -13.7488   -0.0195  -32.6519 C   0  0  0  0  0  0  0  0  0  0  0  0
  -14.6627    0.5336  -31.7808 C   0  0  0  0  0  0  0  0  0  0  0  0
  -16.0159    0.2979  -31.8999 C   0  0  0  0  0  0  0  0  0  0  0  0
  -16.5310   -0.5029  -32.8954 C   0  0  0  0  0  0  0  0  0  0  0  0
  -17.9614   -0.7428  -33.0090 C   0  0  0  0  0  0  0  0  0  0  0  0
  -18.3778   -1.9045  -32.7985 O   0  0  0  0  0  0  0  0  0  0  0  0
  -18.8814    0.2324  -33.3339 O   0  0  0  0  0  0  0  0  0  0  0  0
  -19.9775    0.6331  -32.5846 C   0  0  0  0  0  0  0  0  0  0  0  0
  -20.6507   -0.5236  -31.9202 C   0  0  0  0  0  0  0  0  0  0  0  0
  -21.9199   -0.0397  -31.3765 N   0  0  0  0  0  0  0  0  0  0  0  0
  -21.7059    1.1548  -30.5833 C   0  0  0  0  0  0  0  0  0  0  0  0
  -22.7627    0.3282  -32.4961 C   0  0  0  0  0  0  0  0  0  0  0  0
  -15.6099   -1.0600  -33.7729 C   0  0  0  0  0  0  0  0  0  0  0  0
  -14.2551   -0.8229  -33.6520 C   0  0  0  0  0  0  0  0  0  0  0  0
  1  2  1  0
  2  3  1  0
  3  4  1  0
  4  5  1  0
  5  6  1  0
  6  7  2  0
  7  8  1  0
  8  9  2  0
  9 10  1  0
 10 11  2  0
 10 12  1  0
 12 13  1  0
 13 14  1  0
 14 15  1  0
 15 16  1  0
 15 17  1  0
  9 18  1  0
 18 19  2  0
 19  6  1  0
M  END
$$$$
