
     RDKit          3D

 10 10  0  0  0  0  0  0  0  0999 V2000
  -18.1513   36.9399  -19.9442 O   0  0  0  0  0  0  0  0  0  0  0  0
  -17.7772   37.6676  -20.9198 C   0  0  0  0  0  0  0  0  0  0  0  0
  -16.7415   37.1624  -21.6931 O   0  0  0  0  0  0  0  0  0  0  0  0
  -18.4408   38.9718  -21.1738 C   0  0  0  0  0  0  0  0  0  0  0  0
  -19.3867   38.8422  -22.2323 N   0  0  0  0  0  0  0  0  0  0  0  0
  -20.6441   39.4985  -21.9772 C   0  0  0  0  0  0  0  0  0  0  0  0
  -20.5126   41.0222  -22.1136 C   0  0  0  0  0  0  0  0  0  0  0  0
  -19.9155   41.3685  -23.3030 O   0  0  0  0  0  0  0  0  0  0  0  0
  -19.7102   40.3160  -24.1729 C   0  0  0  0  0  0  0  0  0  0  0  0
  -18.9339   39.1693  -23.5335 C   0  0  0  0  0  0  0  0  0  0  0  0
  1  2  2  0
  2  3  1  0
  2  4  1  0
  4  5  1  0
  5  6  1  0
  6  7  1  0
  7  8  1  0
  8  9  1  0
  9 10  1  0
 10  5  1  0
M  END
$$$$
