
     RDKit          3D

 31 34  0  0  0  0  0  0  0  0999 V2000
  -10.0846   42.8811  -13.1993 C   0  0  0  0  0  0  0  0  0  0  0  0
  -10.1341   42.2445  -14.4503 O   0  0  0  0  0  0  0  0  0  0  0  0
  -11.1236   42.3553  -15.3904 C   0  0  0  0  0  0  0  0  0  0  0  0
  -10.8743   42.2474  -16.7390 C   0  0  0  0  0  0  0  0  0  0  0  0
  -11.8525   42.3566  -17.6984 C   0  0  0  0  0  0  0  0  0  0  0  0
  -13.1573   42.5886  -17.2747 C   0  0  0  0  0  0  0  0  0  0  0  0
  -14.1909   42.7101  -18.2847 C   0  0  0  0  0  0  0  0  0  0  0  0
  -13.9388   42.5817  -19.5081 O   0  0  0  0  0  0  0  0  0  0  0  0
  -15.5082   42.9782  -17.9193 O   0  0  0  0  0  0  0  0  0  0  0  0
  -16.4878   43.2731  -18.9182 C   0  0  0  0  0  0  0  0  0  0  0  0
  -17.1124   41.9994  -19.3487 C   0  0  0  0  0  0  0  0  0  0  0  0
  -17.6114   40.9951  -19.7091 C   0  0  0  0  0  0  0  0  0  0  0  0
  -18.2558   39.7105  -20.1441 C   0  0  0  0  0  0  0  0  0  0  0  0
  -18.4540   39.7108  -21.9248 S   0  0  0  0  0  0  0  0  0  0  0  0
  -19.5203   41.0193  -22.4517 C   0  0  0  0  0  0  0  0  0  0  0  0
  -20.7977   41.2748  -22.0746 N   0  0  0  0  0  0  0  0  0  0  0  0
  -21.1971   42.3474  -22.7202 N   0  0  0  0  0  0  0  0  0  0  0  0
  -20.1701   42.7874  -23.5190 C   0  0  0  0  0  0  0  0  0  0  0  0
  -20.2807   43.9576  -24.3656 C   0  0  0  0  0  0  0  0  0  0  0  0
  -20.8349   45.1200  -23.8265 C   0  0  0  0  0  0  0  0  0  0  0  0
  -20.9456   46.2614  -24.5869 C   0  0  0  0  0  0  0  0  0  0  0  0
  -20.5174   46.2861  -25.8848 C   0  0  0  0  0  0  0  0  0  0  0  0
  -19.9564   45.1532  -26.4716 C   0  0  0  0  0  0  0  0  0  0  0  0
  -19.5243   45.2120  -27.7752 C   0  0  0  0  0  0  0  0  0  0  0  0
  -18.9656   44.0883  -28.3219 C   0  0  0  0  0  0  0  0  0  0  0  0
  -18.8370   42.9145  -27.5799 C   0  0  0  0  0  0  0  0  0  0  0  0
  -19.2971   42.9202  -26.2573 C   0  0  0  0  0  0  0  0  0  0  0  0
  -19.8593   44.0164  -25.6743 C   0  0  0  0  0  0  0  0  0  0  0  0
  -19.2131   41.9550  -23.3086 O   0  0  0  0  0  0  0  0  0  0  0  0
  -13.4440   42.7011  -15.9378 C   0  0  0  0  0  0  0  0  0  0  0  0
  -12.4179   42.5830  -14.9977 C   0  0  0  0  0  0  0  0  0  0  0  0
  1  2  1  0
  2  3  1  0
  3  4  2  0
  4  5  1  0
  5  6  2  0
  6  7  1  0
  7  8  2  0
  7  9  1  0
  9 10  1  0
 10 11  1  0
 11 12  3  0
 12 13  1  0
 13 14  1  0
 14 15  1  0
 15 16  2  0
 16 17  1  0
 17 18  2  0
 18 19  1  0
 19 20  2  0
 20 21  1  0
 21 22  2  0
 22 23  1  0
 23 24  2  0
 24 25  1  0
 25 26  2  0
 26 27  1  0
 27 28  2  0
 18 29  1  0
  6 30  1  0
 30 31  2  0
 31  3  1  0
 29 15  1  0
 28 19  1  0
 28 23  1  0
M  END
$$$$
