
     RDKit          3D

 23 23  0  0  0  0  0  0  0  0999 V2000
  -18.3360   39.1366  -24.5235 C   0  0  0  0  0  0  0  0  0  0  0  0
  -18.5156   39.7341  -23.1898 C   0  0  0  0  0  0  0  0  0  0  0  0
  -18.1932   41.0826  -22.9960 C   0  0  0  0  0  0  0  0  0  0  0  0
  -18.3532   41.6580  -21.7618 C   0  0  0  0  0  0  0  0  0  0  0  0
  -18.0371   43.0241  -21.5246 N   0  0  0  0  0  0  0  0  0  0  0  0
  -16.9266   43.4969  -20.9347 C   0  0  0  0  0  0  0  0  0  0  0  0
  -16.9838   44.8875  -20.8846 C   0  0  0  0  0  0  0  0  0  0  0  0
  -18.1590   45.2524  -21.4599 C   0  0  0  0  0  0  0  0  0  0  0  0
  -18.7851   44.0854  -21.8435 C   0  0  0  0  0  0  0  0  0  0  0  0
  -18.8369   40.8768  -20.7260 C   0  0  0  0  0  0  0  0  0  0  0  0
  -19.0566   41.5627  -19.1424 S   0  0  0  0  0  6  0  0  0  0  0  0
  -19.6841   40.3157  -18.0429 C   0  0  0  0  0  0  0  0  0  0  0  0
  -17.7273   42.0118  -18.5493 O   0  0  0  0  0  0  0  0  0  0  0  0
  -19.9325   42.7774  -19.1543 O   0  0  0  0  0  0  0  0  0  0  0  0
  -19.1477   39.5595  -20.9319 C   0  0  0  0  0  0  0  0  0  0  0  0
  -18.9949   38.9660  -22.1571 C   0  0  0  0  0  0  0  0  0  0  0  0
  -19.3216   37.5748  -22.3801 C   0  0  0  0  0  0  0  0  0  0  0  0
  -20.5089   37.2755  -22.7044 O   0  0  0  0  0  0  0  0  0  0  0  0
  -18.4012   36.5171  -22.2605 N   0  0  0  0  0  0  0  0  0  0  0  0
  -18.7427   35.1419  -22.4855 C   0  0  0  0  0  0  0  0  0  0  0  0
  -19.9508   34.8561  -22.8139 N   0  0  0  0  0  0  0  0  0  0  0  0
  -17.7832   34.1188  -22.3520 N   0  0  0  0  0  0  0  0  0  0  0  0
  -18.4959   39.3273  -21.8299 Cl  0  0  0  0  0  0  0  0  0  0  0  0
  1  2  1  0
  2  3  2  0
  3  4  1  0
  4  5  1  0
  5  6  1  0
  6  7  2  0
  7  8  1  0
  8  9  2  0
  4 10  2  0
 10 11  1  0
 11 12  1  0
 11 13  2  0
 11 14  2  0
 10 15  1  0
 15 16  2  0
 16 17  1  0
 17 18  2  0
 17 19  1  0
 19 20  1  0
 20 21  2  0
 20 22  1  0
 16  2  1  0
  9  5  1  0
M  END
$$$$
