
     RDKit          3D

 40 44  0  0  0  0  0  0  0  0999 V2000
  -14.0002   22.0973  -45.6973 C   0  0  0  0  0  0  0  0  0  0  0  0
  -14.8638   21.5063  -44.6452 C   0  0  0  0  0  0  0  0  0  0  0  0
  -14.4102   20.4481  -43.8792 C   0  0  0  0  0  0  0  0  0  0  0  0
  -15.1790   19.8902  -42.9125 C   0  0  0  0  0  0  0  0  0  0  0  0
  -16.4775   20.3802  -42.6594 C   0  0  0  0  0  0  0  0  0  0  0  0
  -17.2440   19.7596  -41.6575 N   0  0  0  0  0  0  0  0  0  0  0  0
  -18.1878   20.3778  -40.8170 C   0  0  0  0  0  0  0  0  0  0  0  0
  -18.7564   19.7181  -39.8252 N   0  0  0  0  0  0  0  0  0  0  0  0
  -19.6502   20.2576  -39.0044 C   0  0  0  0  0  0  0  0  0  0  0  0
  -20.0372   21.5866  -39.1620 C   0  0  0  0  0  0  0  0  0  0  0  0
  -19.4439   22.2685  -40.1935 C   0  0  0  0  0  0  0  0  0  0  0  0
  -18.5505   21.6713  -40.9871 N   0  0  0  0  0  0  0  0  0  0  0  0
  -19.7838   23.6476  -40.4140 N   0  0  0  0  0  0  0  0  0  0  0  0
  -19.1571   24.3680  -41.5055 C   0  0  0  0  0  0  0  0  0  0  0  0
  -20.7309   24.2365  -39.5342 C   0  0  0  0  0  0  0  0  0  0  0  0
  -21.0584   25.4584  -39.6989 O   0  0  0  0  0  0  0  0  0  0  0  0
  -21.3449   23.5370  -38.4659 N   0  0  0  0  0  0  0  0  0  0  0  0
  -22.2688   24.2509  -37.6292 C   0  0  0  0  0  0  0  0  0  0  0  0
  -23.6344   24.2623  -37.8959 C   0  0  0  0  0  0  0  0  0  0  0  0
  -24.5382   24.9354  -37.1194 C   0  0  0  0  0  0  0  0  0  0  0  0
  -25.9376   24.9940  -37.3172 N   0  0  0  0  0  0  0  0  0  0  0  0
  -26.9552   24.5514  -36.4679 C   0  0  0  0  0  0  0  0  0  0  0  0
  -26.6346   24.1763  -35.3113 O   0  0  0  0  0  0  0  0  0  0  0  0
  -28.3696   24.4843  -36.8037 C   0  0  0  0  0  0  0  0  0  0  0  0
  -28.8102   24.3353  -38.1019 C   0  0  0  0  0  0  0  0  0  0  0  0
  -30.1458   24.2724  -38.4318 C   0  0  0  0  0  0  0  0  0  0  0  0
  -31.1005   24.3608  -37.4325 C   0  0  0  0  0  0  0  0  0  0  0  0
  -30.6936   24.5090  -36.1376 C   0  0  0  0  0  0  0  0  0  0  0  0
  -31.7237   24.6063  -35.0592 C   0  0  0  0  0  0  0  0  0  0  0  0
  -31.1972   25.2129  -33.9353 F   0  0  0  0  0  0  0  0  0  0  0  0
  -32.2233   23.3524  -34.7652 F   0  0  0  0  0  0  0  0  0  0  0  0
  -32.7315   25.4188  -35.5378 F   0  0  0  0  0  0  0  0  0  0  0  0
  -29.3384   24.5688  -35.8377 C   0  0  0  0  0  0  0  0  0  0  0  0
  -23.9809   25.6180  -36.0261 C   0  0  0  0  0  0  0  0  0  0  0  0
  -22.6573   25.6284  -35.7367 C   0  0  0  0  0  0  0  0  0  0  0  0
  -21.7776   24.9377  -36.5434 C   0  0  0  0  0  0  0  0  0  0  0  0
  -20.3169   24.9247  -36.2561 C   0  0  0  0  0  0  0  0  0  0  0  0
  -21.0385   22.1505  -38.2354 C   0  0  0  0  0  0  0  0  0  0  0  0
  -16.8996   21.4194  -43.4251 C   0  0  0  0  0  0  0  0  0  0  0  0
  -16.0936   21.9509  -44.3869 N   0  0  0  0  0  0  0  0  0  0  0  0
  1  2  1  0
  2  3  2  0
  3  4  1  0
  4  5  2  0
  5  6  1  0
  6  7  1  0
  7  8  2  0
  8  9  1  0
  9 10  2  0
 10 11  1  0
 11 12  2  0
 11 13  1  0
 13 14  1  0
 13 15  1  0
 15 16  2  0
 15 17  1  0
 17 18  1  0
 18 19  2  0
 19 20  1  0
 20 21  1  0
 21 22  1  0
 22 23  2  0
 22 24  1  0
 24 25  2  0
 25 26  1  0
 26 27  2  0
 27 28  1  0
 28 29  1  0
 29 30  1  0
 29 31  1  0
 29 32  1  0
 28 33  2  0
 20 34  2  0
 34 35  1  0
 35 36  2  0
 36 37  1  0
 17 38  1  0
  5 39  1  0
 39 40  2  0
 40  2  1  0
 12  7  1  0
 36 18  1  0
 38 10  1  0
 33 24  1  0
M  END
$$$$
