
     RDKit          3D

 29 33  0  0  0  0  0  0  0  0999 V2000
  -31.6271   23.6929  -37.8203 C   0  0  0  0  0  0  0  0  0  0  0  0
  -30.6234   24.7330  -37.9536 N   0  0  0  0  0  0  0  0  0  0  0  0
  -30.7197   25.8646  -38.6487 N   0  0  0  0  0  0  0  0  0  0  0  0
  -29.5897   26.5737  -38.5334 C   0  0  0  0  0  0  0  0  0  0  0  0
  -28.7126   25.8814  -37.7295 C   0  0  0  0  0  0  0  0  0  0  0  0
  -27.4335   26.1136  -37.2716 C   0  0  0  0  0  0  0  0  0  0  0  0
  -26.7501   25.2144  -36.4387 C   0  0  0  0  0  0  0  0  0  0  0  0
  -25.4217   25.5061  -35.9487 C   0  0  0  0  0  0  0  0  0  0  0  0
  -25.2512   26.5652  -35.0375 C   0  0  0  0  0  0  0  0  0  0  0  0
  -24.0580   26.8847  -34.5274 N   0  0  0  0  0  0  0  0  0  0  0  0
  -22.9700   26.1838  -34.8829 C   0  0  0  0  0  0  0  0  0  0  0  0
  -21.7222   26.5455  -34.3260 N   0  0  0  0  0  0  0  0  0  0  0  0
  -23.1115   25.1493  -35.7681 C   0  0  0  0  0  0  0  0  0  0  0  0
  -21.6939   24.2446  -36.2227 Cl  0  0  0  0  0  0  0  0  0  0  0  0
  -24.3420   24.7896  -36.3196 C   0  0  0  0  0  0  0  0  0  0  0  0
  -24.4084   23.7269  -37.2358 N   0  0  0  0  0  0  0  0  0  0  0  0
  -24.4605   24.1414  -38.6540 C   0  0  0  0  0  0  0  0  0  0  0  0
  -24.8163   22.9089  -39.4544 C   0  0  0  0  0  0  0  0  0  0  0  0
  -23.6949   21.9144  -39.2899 C   0  0  0  0  0  0  0  0  0  0  0  0
  -24.0197   20.7041  -40.1447 C   0  0  0  0  0  0  0  0  0  0  0  0
  -23.7500   21.2350  -41.5448 C   0  0  0  0  0  0  0  0  0  0  0  0
  -22.7043   22.2323  -41.3523 N   0  0  0  0  0  0  0  0  0  0  0  0
  -22.4753   22.4236  -39.9461 C   0  0  0  0  0  0  0  0  0  0  0  0
  -21.4294   22.9257  -39.4629 O   0  0  0  0  0  0  0  0  0  0  0  0
  -23.4598   21.5558  -37.8449 C   0  0  0  0  0  0  0  0  0  0  0  0
  -24.3916   22.3180  -36.9221 C   0  0  0  0  0  0  0  0  0  0  0  0
  -27.4393   24.0769  -36.1024 C   0  0  0  0  0  0  0  0  0  0  0  0
  -28.7410   23.8298  -36.5628 C   0  0  0  0  0  0  0  0  0  0  0  0
  -29.3884   24.7308  -37.3809 C   0  0  0  0  0  0  0  0  0  0  0  0
  1  2  1  0
  2  3  1  0
  3  4  2  0
  4  5  1  0
  5  6  2  0
  6  7  1  0
  7  8  1  0
  8  9  2  0
  9 10  1  0
 10 11  2  0
 11 12  1  0
 11 13  1  0
 13 14  1  0
 13 15  2  0
 15 16  1  0
 16 17  1  0
 17 18  1  0
 18 19  1  0
 19 20  1  0
 20 21  1  0
 21 22  1  0
 22 23  1  0
 23 24  2  0
 19 25  1  0
 25 26  1  0
  7 27  2  0
 27 28  1  0
 28 29  2  0
 29  2  1  0
 29  5  1  0
 15  8  1  0
 26 16  1  0
 23 19  1  0
M  END
$$$$
