
     RDKit          3D

 15 16  0  0  0  0  0  0  0  0999 V2000
  -20.0826   38.4385  -21.6654 O   0  0  0  0  0  0  0  0  0  0  0  0
  -19.7725   39.2031  -20.7200 C   0  0  0  0  0  0  0  0  0  0  0  0
  -19.8666   38.9386  -19.3363 N   0  0  0  0  0  0  0  0  0  0  0  0
  -19.3566   39.8963  -18.4765 C   0  0  0  0  0  0  0  0  0  0  0  0
  -19.3781   39.7796  -17.1910 O   0  0  0  0  0  0  0  0  0  0  0  0
  -18.7799   41.0721  -19.1022 C   0  0  0  0  0  0  0  0  0  0  0  0
  -18.1548   42.0671  -18.5049 C   0  0  0  0  0  0  0  0  0  0  0  0
  -17.3188   42.9833  -19.2365 C   0  0  0  0  0  0  0  0  0  0  0  0
  -15.9856   43.1513  -18.9425 C   0  0  0  0  0  0  0  0  0  0  0  0
  -15.2789   44.0552  -19.7157 C   0  0  0  0  0  0  0  0  0  0  0  0
  -15.8527   44.7716  -20.7412 C   0  0  0  0  0  0  0  0  0  0  0  0
  -17.1748   44.5866  -21.0110 C   0  0  0  0  0  0  0  0  0  0  0  0
  -18.0709   45.5381  -22.4188 Br  0  0  0  0  0  0  0  0  0  0  0  0
  -17.9038   43.7113  -20.2789 C   0  0  0  0  0  0  0  0  0  0  0  0
  -19.1195   40.8590  -20.8465 S   0  0  0  0  0  0  0  0  0  0  0  0
  1  2  2  0
  2  3  1  0
  3  4  1  0
  4  5  2  0
  4  6  1  0
  6  7  2  0
  7  8  1  0
  8  9  2  0
  9 10  1  0
 10 11  2  0
 11 12  1  0
 12 13  1  0
 12 14  2  0
  6 15  1  0
 15  2  1  0
 14  8  1  0
M  END
$$$$
