
     RDKit          3D

 38 41  0  0  0  0  0  0  0  0999 V2000
  -25.2574   19.4211  -31.4115 C   0  0  0  0  0  0  0  0  0  0  0  0
  -24.2414   19.1119  -32.4905 C   0  0  0  0  0  0  0  0  0  0  0  0
  -22.9179   19.0242  -31.9620 N   0  0  0  0  0  0  0  0  0  0  0  0
  -22.2889   17.7875  -32.2800 C   0  0  0  0  0  0  0  0  0  0  0  0
  -20.9177   17.6285  -31.6077 C   0  0  0  0  0  0  0  0  0  0  0  0
  -20.1673   18.8053  -31.9532 N   0  0  0  0  0  0  0  0  0  0  0  0
  -18.9179   18.6890  -32.5870 C   0  0  0  0  0  0  0  0  0  0  0  0
  -18.5317   17.5024  -33.2220 C   0  0  0  0  0  0  0  0  0  0  0  0
  -17.3249   17.3606  -33.8615 C   0  0  0  0  0  0  0  0  0  0  0  0
  -16.4193   18.4216  -33.9015 C   0  0  0  0  0  0  0  0  0  0  0  0
  -15.1635   18.2619  -34.5447 N   0  0  0  0  0  0  0  0  0  0  0  0
  -15.1306   18.1375  -35.9523 C   0  0  0  0  0  0  0  0  0  0  0  0
  -16.2675   17.6678  -36.5853 C   0  0  0  0  0  0  0  0  0  0  0  0
  -16.3432   17.5028  -37.9597 C   0  0  0  0  0  0  0  0  0  0  0  0
  -17.5277   17.0001  -38.5204 N   0  0  0  0  0  0  0  0  0  0  0  0
  -17.8711   15.5844  -38.2484 C   0  0  0  0  0  0  0  0  0  0  0  0
  -18.4502   17.6974  -39.3285 C   0  0  0  0  0  0  0  0  0  0  0  0
  -19.3927   17.0428  -39.9027 O   0  0  0  0  0  0  0  0  0  0  0  0
  -18.4400   19.0859  -39.5783 N   0  0  0  0  0  0  0  0  0  0  0  0
  -19.5637   19.7292  -40.2232 C   0  0  0  0  0  0  0  0  0  0  0  0
  -19.3020   20.4266  -41.3864 C   0  0  0  0  0  0  0  0  0  0  0  0
  -17.6612   20.5142  -42.0069 Cl  0  0  0  0  0  0  0  0  0  0  0  0
  -20.3454   21.0502  -42.0504 C   0  0  0  0  0  0  0  0  0  0  0  0
  -20.0541   21.7366  -43.2032 O   0  0  0  0  0  0  0  0  0  0  0  0
  -20.9859   22.3201  -44.0812 C   0  0  0  0  0  0  0  0  0  0  0  0
  -21.6125   20.9505  -41.5223 C   0  0  0  0  0  0  0  0  0  0  0  0
  -21.8860   20.2580  -40.3636 C   0  0  0  0  0  0  0  0  0  0  0  0
  -23.1488   20.1379  -39.8084 O   0  0  0  0  0  0  0  0  0  0  0  0
  -24.3386   20.6093  -40.3583 C   0  0  0  0  0  0  0  0  0  0  0  0
  -20.8176   19.6375  -39.7109 C   0  0  0  0  0  0  0  0  0  0  0  0
  -21.0712   18.7412  -38.2390 Cl  0  0  0  0  0  0  0  0  0  0  0  0
  -15.2489   17.8266  -38.6456 N   0  0  0  0  0  0  0  0  0  0  0  0
  -14.1428   18.2814  -38.0589 C   0  0  0  0  0  0  0  0  0  0  0  0
  -14.0725   18.4401  -36.7174 N   0  0  0  0  0  0  0  0  0  0  0  0
  -16.7672   19.5907  -33.2924 C   0  0  0  0  0  0  0  0  0  0  0  0
  -17.9798   19.6980  -32.6627 C   0  0  0  0  0  0  0  0  0  0  0  0
  -20.7435   20.0786  -31.6069 C   0  0  0  0  0  0  0  0  0  0  0  0
  -22.1221   20.1990  -32.2175 C   0  0  0  0  0  0  0  0  0  0  0  0
  1  2  1  0
  2  3  1  0
  3  4  1  0
  4  5  1  0
  5  6  1  0
  6  7  1  0
  7  8  2  0
  8  9  1  0
  9 10  2  0
 10 11  1  0
 11 12  1  0
 12 13  2  0
 13 14  1  0
 14 15  1  0
 15 16  1  0
 15 17  1  0
 17 18  2  0
 17 19  1  0
 19 20  1  0
 20 21  2  0
 21 22  1  0
 21 23  1  0
 23 24  1  0
 24 25  1  0
 23 26  2  0
 26 27  1  0
 27 28  1  0
 28 29  1  0
 27 30  2  0
 30 31  1  0
 14 32  2  0
 32 33  1  0
 33 34  2  0
 10 35  1  0
 35 36  2  0
  6 37  1  0
 37 38  1  0
 38  3  1  0
 36  7  1  0
 34 12  1  0
 30 20  1  0
M  END
$$$$
