
     RDKit          3D

 29 33  0  0  0  0  0  0  0  0999 V2000
  -18.2846   39.5074  -23.9348 C   0  0  0  0  0  0  0  0  0  0  0  0
  -17.8960   38.2671  -23.1618 C   0  0  0  0  0  0  0  0  0  0  0  0
  -19.0001   37.7057  -22.4265 N   0  0  0  0  0  0  0  0  0  0  0  0
  -19.6375   36.5610  -22.6351 C   0  0  0  0  0  0  0  0  0  0  0  0
  -19.4713   35.5568  -23.5827 C   0  0  0  0  0  0  0  0  0  0  0  0
  -20.2607   34.4335  -23.6132 C   0  0  0  0  0  0  0  0  0  0  0  0
  -21.2718   34.2643  -22.6759 C   0  0  0  0  0  0  0  0  0  0  0  0
  -21.4429   35.2549  -21.7336 C   0  0  0  0  0  0  0  0  0  0  0  0
  -20.6492   36.3928  -21.6963 C   0  0  0  0  0  0  0  0  0  0  0  0
  -20.5944   37.5038  -20.8985 C   0  0  0  0  0  0  0  0  0  0  0  0
  -21.2938   37.9289  -19.8328 N   0  0  0  0  0  0  0  0  0  0  0  0
  -21.0197   39.0824  -19.2338 N   0  0  0  0  0  0  0  0  0  0  0  0
  -20.0511   39.8895  -19.6348 C   0  0  0  0  0  0  0  0  0  0  0  0
  -19.5734   41.4344  -18.9503 S   0  0  0  0  0  0  0  0  0  0  0  0
  -18.0273   42.1115  -19.4597 C   0  0  0  0  0  0  0  0  0  0  0  0
  -17.8220   42.2446  -20.9373 C   0  0  0  0  0  0  0  0  0  0  0  0
  -16.5291   42.8910  -21.2958 C   0  0  0  0  0  0  0  0  0  0  0  0
  -16.6109   44.3516  -21.0462 N   0  0  0  0  0  0  0  0  0  0  0  0
  -17.4567   45.2165  -21.6284 C   0  0  0  0  0  0  0  0  0  0  0  0
  -18.3139   44.8770  -22.4852 O   0  0  0  0  0  0  0  0  0  0  0  0
  -17.2318   46.4527  -21.1527 N   0  0  0  0  0  0  0  0  0  0  0  0
  -16.2342   46.3509  -20.2645 C   0  0  0  0  0  0  0  0  0  0  0  0
  -15.6236   47.3090  -19.4979 C   0  0  0  0  0  0  0  0  0  0  0  0
  -14.6053   46.9324  -18.6516 C   0  0  0  0  0  0  0  0  0  0  0  0
  -14.1904   45.6177  -18.5609 C   0  0  0  0  0  0  0  0  0  0  0  0
  -14.8115   44.6546  -19.3380 C   0  0  0  0  0  0  0  0  0  0  0  0
  -15.8403   45.0136  -20.1978 C   0  0  0  0  0  0  0  0  0  0  0  0
  -19.3379   39.4661  -20.7138 N   0  0  0  0  0  0  0  0  0  0  0  0
  -19.5767   38.3114  -21.3511 C   0  0  0  0  0  0  0  0  0  0  0  0
  1  2  1  0
  2  3  1  0
  3  4  1  0
  4  5  2  0
  5  6  1  0
  6  7  2  0
  7  8  1  0
  8  9  2  0
  9 10  1  0
 10 11  2  0
 11 12  1  0
 12 13  2  0
 13 14  1  0
 14 15  1  0
 15 16  1  0
 16 17  1  0
 17 18  1  0
 18 19  1  0
 19 20  2  0
 19 21  1  0
 21 22  1  0
 22 23  2  0
 23 24  1  0
 24 25  2  0
 25 26  1  0
 26 27  2  0
 13 28  1  0
 28 29  2  0
 29  3  1  0
  9  4  1  0
 29 10  1  0
 27 18  1  0
 27 22  1  0
M  END
$$$$
