
     RDKit          3D

 25 26  0  0  0  0  0  0  0  0999 V2000
  -21.1379   36.7565  -25.0258 Br  0  0  0  0  0  0  0  0  0  0  0  0
  -24.3526   37.2536  -28.1379 C   0  0  0  0  0  0  0  0  0  0  0  0
  -22.9499   37.0590  -27.7351 N   0  0  0  0  0  0  0  0  0  0  0  0
  -22.4549   35.9811  -28.5786 C   0  0  0  0  0  0  0  0  0  0  0  0
  -23.0010   36.6764  -26.3402 C   0  0  0  0  0  0  0  0  0  0  0  0
  -21.5682   36.4478  -25.8077 C   0  0  0  0  0  0  0  0  0  0  0  0
  -21.6439   36.0600  -24.3876 C   0  0  0  0  0  0  0  0  0  0  0  0
  -20.3837   35.8265  -23.6379 C   0  0  0  0  0  0  0  0  0  0  0  0
  -19.4990   34.7673  -24.1680 C   0  0  0  0  0  0  0  0  0  0  0  0
  -19.2514   33.5832  -23.4462 C   0  0  0  0  0  0  0  0  0  0  0  0
  -18.4304   32.5846  -23.9183 C   0  0  0  0  0  0  0  0  0  0  0  0
  -17.8209   32.7378  -25.1440 C   0  0  0  0  0  0  0  0  0  0  0  0
  -17.0182   31.7428  -25.5876 F   0  0  0  0  0  0  0  0  0  0  0  0
  -18.0451   33.8861  -25.8719 C   0  0  0  0  0  0  0  0  0  0  0  0
  -18.8775   34.8922  -25.3870 C   0  0  0  0  0  0  0  0  0  0  0  0
  -20.8492   35.2890  -22.3987 O   0  0  0  0  0  0  0  0  0  0  0  0
  -21.1372   36.3919  -21.6141 C   0  0  0  0  0  0  0  0  0  0  0  0
  -20.1334   37.4163  -21.9907 C   0  0  0  0  0  0  0  0  0  0  0  0
  -19.6703   38.5167  -21.3476 C   0  0  0  0  0  0  0  0  0  0  0  0
  -18.6919   39.3442  -21.9107 C   0  0  0  0  0  0  0  0  0  0  0  0
  -18.2030   40.5081  -21.2288 C   0  0  0  0  0  0  0  0  0  0  0  0
  -17.8113   41.4620  -20.6667 N   0  0  0  0  0  0  0  0  0  0  0  0
  -18.2397   38.9624  -23.1518 C   0  0  0  0  0  0  0  0  0  0  0  0
  -18.7039   37.8476  -23.8119 C   0  0  0  0  0  0  0  0  0  0  0  0
  -19.6627   37.0626  -23.2274 C   0  0  0  0  0  0  0  0  0  0  0  0
  2  3  1  0
  3  4  1  0
  3  5  1  0
  5  6  1  0
  6  7  1  0
  7  8  1  0
  8  9  1  0
  9 10  2  0
 10 11  1  0
 11 12  2  0
 12 13  1  0
 12 14  1  0
 14 15  2  0
  8 16  1  0
 16 17  1  0
 17 18  1  0
 18 19  2  0
 19 20  1  0
 20 21  1  0
 21 22  3  0
 20 23  2  0
 23 24  1  0
 24 25  2  0
 25  8  1  0
 15  9  1  0
 25 18  1  0
M  END
$$$$
