
     RDKit          3D

 30 31  0  0  0  0  0  0  0  0999 V2000
  -18.9192   37.0177  -21.9003 O   0  0  0  0  0  0  0  0  0  0  0  0
  -20.2159   37.5609  -21.8548 C   0  0  0  0  0  0  0  0  0  0  0  0
  -20.0716   39.0064  -21.5474 C   0  0  0  0  0  0  0  0  0  0  0  0
  -18.7906   39.5308  -21.3893 C   0  0  0  0  0  0  0  0  0  0  0  0
  -18.6379   40.8617  -21.1062 C   0  0  0  0  0  0  0  0  0  0  0  0
  -17.2814   41.4285  -20.9379 C   0  0  0  0  0  0  0  0  0  0  0  0
  -16.7238   41.0418  -19.7308 O   0  0  0  0  0  0  0  0  0  0  0  0
  -17.2966   42.8933  -21.2047 C   0  0  0  0  0  0  0  0  0  0  0  0
  -16.0228   43.5471  -21.1978 N   0  0  0  0  0  0  0  0  0  0  0  0
  -15.8990   44.4620  -20.1152 C   0  0  0  0  0  0  0  0  0  0  0  0
  -14.4706   44.5277  -19.5572 C   0  0  0  0  0  0  0  0  0  0  0  0
  -14.3472   43.6417  -18.3511 C   0  0  0  0  0  0  0  0  0  0  0  0
  -13.0131   43.8455  -17.6903 C   0  0  0  0  0  0  0  0  0  0  0  0
  -12.5760   42.5220  -17.0292 C   0  0  0  0  0  0  0  0  0  0  0  0
  -11.2487   42.7514  -16.3900 C   0  0  0  0  0  0  0  0  0  0  0  0
  -11.3300   43.0504  -15.0557 O   0  0  0  0  0  0  0  0  0  0  0  0
  -10.8557   42.0211  -14.2725 C   0  0  0  0  0  0  0  0  0  0  0  0
   -9.4604   41.5925  -14.7605 C   0  0  0  0  0  0  0  0  0  0  0  0
   -8.7148   40.9556  -13.6334 C   0  0  0  0  0  0  0  0  0  0  0  0
   -7.3026   40.6305  -14.0916 C   0  0  0  0  0  0  0  0  0  0  0  0
   -6.5593   39.9592  -12.9985 C   0  0  0  0  0  0  0  0  0  0  0  0
   -7.1262   39.7509  -11.7712 C   0  0  0  0  0  0  0  0  0  0  0  0
   -6.4380   39.1259  -10.7605 C   0  0  0  0  0  0  0  0  0  0  0  0
   -5.1356   38.6813  -10.9522 C   0  0  0  0  0  0  0  0  0  0  0  0
   -4.5664   38.8909  -12.1871 C   0  0  0  0  0  0  0  0  0  0  0  0
   -5.2491   39.5124  -13.1918 C   0  0  0  0  0  0  0  0  0  0  0  0
  -19.7815   41.6333  -20.9889 C   0  0  0  0  0  0  0  0  0  0  0  0
  -21.0459   41.1207  -21.1440 C   0  0  0  0  0  0  0  0  0  0  0  0
  -21.1848   39.7820  -21.4283 C   0  0  0  0  0  0  0  0  0  0  0  0
  -22.4514   39.1958  -21.5985 O   0  0  0  0  0  0  0  0  0  0  0  0
  1  2  1  0
  2  3  1  0
  3  4  2  0
  4  5  1  0
  5  6  1  0
  6  7  1  0
  6  8  1  0
  8  9  1  0
  9 10  1  0
 10 11  1  0
 11 12  1  0
 12 13  1  0
 13 14  1  0
 14 15  1  0
 15 16  1  0
 16 17  1  0
 17 18  1  0
 18 19  1  0
 19 20  1  0
 20 21  1  0
 21 22  2  0
 22 23  1  0
 23 24  2  0
 24 25  1  0
 25 26  2  0
  5 27  2  0
 27 28  1  0
 28 29  2  0
 29 30  1  0
 29  3  1  0
 26 21  1  0
M  END
$$$$
