
     RDKit          3D

 34 37  0  0  0  0  0  0  0  0999 V2000
  -26.9035   25.1077  -32.2770 C   0  0  0  0  0  0  0  0  0  0  0  0
  -26.7659   25.9854  -33.3661 O   0  0  0  0  0  0  0  0  0  0  0  0
  -25.5516   26.6339  -33.5356 C   0  0  0  0  0  0  0  0  0  0  0  0
  -24.6867   26.8815  -32.4473 C   0  0  0  0  0  0  0  0  0  0  0  0
  -23.4934   27.5218  -32.6274 C   0  0  0  0  0  0  0  0  0  0  0  0
  -22.6303   27.8047  -31.5580 N   0  0  0  0  0  0  0  0  0  0  0  0
  -23.0287   28.3009  -30.2930 C   0  0  0  0  0  0  0  0  0  0  0  0
  -22.2286   28.9774  -29.4844 N   0  0  0  0  0  0  0  0  0  0  0  0
  -22.5675   29.4479  -28.2922 C   0  0  0  0  0  0  0  0  0  0  0  0
  -23.8500   29.2206  -27.8513 C   0  0  0  0  0  0  0  0  0  0  0  0
  -24.2359   29.6894  -26.6244 F   0  0  0  0  0  0  0  0  0  0  0  0
  -24.7286   28.5217  -28.6505 C   0  0  0  0  0  0  0  0  0  0  0  0
  -26.0717   28.2485  -28.2084 N   0  0  0  0  0  0  0  0  0  0  0  0
  -27.0901   27.7144  -29.0268 C   0  0  0  0  0  0  0  0  0  0  0  0
  -27.1987   28.0907  -30.3722 C   0  0  0  0  0  0  0  0  0  0  0  0
  -28.1972   27.5725  -31.1791 C   0  0  0  0  0  0  0  0  0  0  0  0
  -29.1039   26.6724  -30.6615 C   0  0  0  0  0  0  0  0  0  0  0  0
  -28.9836   26.3141  -29.3414 C   0  0  0  0  0  0  0  0  0  0  0  0
  -27.9982   26.8361  -28.5767 N   0  0  0  0  0  0  0  0  0  0  0  0
  -29.9016   25.3965  -28.7701 N   0  0  0  0  0  0  0  0  0  0  0  0
  -30.9315   24.8704  -29.5934 C   0  0  0  0  0  0  0  0  0  0  0  0
  -31.5180   23.7813  -29.3188 O   0  0  0  0  0  0  0  0  0  0  0  0
  -31.3049   25.6551  -30.8098 C   0  0  0  0  0  0  0  0  0  0  0  0
  -31.9939   24.7774  -31.8032 C   0  0  0  0  0  0  0  0  0  0  0  0
  -32.1694   26.8231  -30.3940 C   0  0  0  0  0  0  0  0  0  0  0  0
  -30.1081   26.1407  -31.4412 O   0  0  0  0  0  0  0  0  0  0  0  0
  -24.2941   28.0834  -29.8446 N   0  0  0  0  0  0  0  0  0  0  0  0
  -23.1455   27.9283  -33.9250 C   0  0  0  0  0  0  0  0  0  0  0  0
  -23.9541   27.7096  -35.0154 C   0  0  0  0  0  0  0  0  0  0  0  0
  -23.6668   28.0857  -36.3133 O   0  0  0  0  0  0  0  0  0  0  0  0
  -23.8638   29.4377  -36.6739 C   0  0  0  0  0  0  0  0  0  0  0  0
  -25.1628   27.0540  -34.7869 C   0  0  0  0  0  0  0  0  0  0  0  0
  -26.0038   26.8174  -35.8619 O   0  0  0  0  0  0  0  0  0  0  0  0
  -26.0893   25.5681  -36.5240 C   0  0  0  0  0  0  0  0  0  0  0  0
  1  2  1  0
  2  3  1  0
  3  4  2  0
  4  5  1  0
  5  6  1  0
  6  7  1  0
  7  8  2  0
  8  9  1  0
  9 10  2  0
 10 11  1  0
 10 12  1  0
 12 13  1  0
 13 14  1  0
 14 15  2  0
 15 16  1  0
 16 17  2  0
 17 18  1  0
 18 19  2  0
 18 20  1  0
 20 21  1  0
 21 22  2  0
 21 23  1  0
 23 24  1  0
 23 25  1  0
 23 26  1  0
 12 27  2  0
  5 28  2  0
 28 29  1  0
 29 30  1  0
 30 31  1  0
 29 32  2  0
 32 33  1  0
 33 34  1  0
 32  3  1  0
 27  7  1  0
 19 14  1  0
 26 17  1  0
M  END
$$$$
