
     RDKit          3D

 15 16  0  0  0  0  0  0  0  0999 V2000
  -22.5182   39.3908  -20.9985 N   0  0  0  0  0  0  0  0  0  0  0  0
  -21.2784   38.7542  -21.2796 C   0  0  0  0  0  0  0  0  0  0  0  0
  -21.1127   37.8438  -22.2371 N   0  0  0  0  0  0  0  0  0  0  0  0
  -19.9369   37.2407  -22.5029 C   0  0  0  0  0  0  0  0  0  0  0  0
  -19.8792   36.2561  -23.5782 C   0  0  0  0  0  0  0  0  0  0  0  0
  -19.6713   34.9099  -23.2807 C   0  0  0  0  0  0  0  0  0  0  0  0
  -19.6084   33.9325  -24.2439 C   0  0  0  0  0  0  0  0  0  0  0  0
  -19.7580   34.3017  -25.5673 C   0  0  0  0  0  0  0  0  0  0  0  0
  -19.9664   35.6214  -25.9205 C   0  0  0  0  0  0  0  0  0  0  0  0
  -20.0214   36.5631  -24.9157 C   0  0  0  0  0  0  0  0  0  0  0  0
  -18.8577   37.6006  -21.7288 C   0  0  0  0  0  0  0  0  0  0  0  0
  -17.1783   36.7953  -22.0415 Br  0  0  0  0  0  0  0  0  0  0  0  0
  -19.0096   38.5554  -20.7172 C   0  0  0  0  0  0  0  0  0  0  0  0
  -18.0335   38.8763  -20.0224 O   0  0  0  0  0  0  0  0  0  0  0  0
  -20.2210   39.1031  -20.5255 N   0  0  0  0  0  0  0  0  0  0  0  0
  1  2  1  0
  2  3  2  0
  3  4  1  0
  4  5  1  0
  5  6  2  0
  6  7  1  0
  7  8  2  0
  8  9  1  0
  9 10  2  0
  4 11  2  0
 11 12  1  0
 11 13  1  0
 13 14  2  0
 13 15  1  0
 15  2  1  0
 10  5  1  0
M  END
$$$$
