
     RDKit          3D

 24 25  0  0  0  0  0  0  0  0999 V2000
  -25.1639   22.1275  -38.8519 C   0  0  0  0  0  0  0  0  0  0  0  0
  -24.2130   23.1020  -38.2672 C   0  0  0  0  0  0  0  0  0  0  0  0
  -23.0722   23.4396  -38.9977 C   0  0  0  0  0  0  0  0  0  0  0  0
  -22.1598   24.3462  -38.5081 C   0  0  0  0  0  0  0  0  0  0  0  0
  -21.0438   24.6587  -39.2551 O   0  0  0  0  0  0  0  0  0  0  0  0
  -20.4666   23.9065  -40.2674 C   0  0  0  0  0  0  0  0  0  0  0  0
  -20.9433   24.3428  -41.5811 C   0  0  0  0  0  0  0  0  0  0  0  0
  -20.6942   23.6494  -42.5941 O   0  0  0  0  0  0  0  0  0  0  0  0
  -21.6735   25.5032  -41.7976 O   0  0  0  0  0  0  0  0  0  0  0  0
  -22.4140   24.8999  -37.2871 C   0  0  0  0  0  0  0  0  0  0  0  0
  -23.5561   24.5671  -36.5475 C   0  0  0  0  0  0  0  0  0  0  0  0
  -23.7250   25.2555  -35.2715 C   0  0  0  0  0  0  0  0  0  0  0  0
  -24.4852   23.6490  -37.0337 C   0  0  0  0  0  0  0  0  0  0  0  0
  -25.6966   23.3172  -36.2335 C   0  0  0  0  0  0  0  0  0  0  0  0
  -26.8255   24.2316  -36.4138 C   0  0  0  0  0  0  0  0  0  0  0  0
  -26.7475   25.3017  -37.2624 C   0  0  0  0  0  0  0  0  0  0  0  0
  -27.8357   26.1375  -37.4357 C   0  0  0  0  0  0  0  0  0  0  0  0
  -29.0026   25.9127  -36.7672 C   0  0  0  0  0  0  0  0  0  0  0  0
  -30.0721   26.7774  -36.9703 O   0  0  0  0  0  0  0  0  0  0  0  0
  -29.1147   24.8483  -35.9083 C   0  0  0  0  0  0  0  0  0  0  0  0
  -30.4133   24.6673  -35.2156 C   0  0  0  0  0  0  0  0  0  0  0  0
  -30.2637   24.1426  -33.8250 C   0  0  0  0  0  0  0  0  0  0  0  0
  -31.2848   23.7655  -36.0833 C   0  0  0  0  0  0  0  0  0  0  0  0
  -28.0394   24.0383  -35.7494 C   0  0  0  0  0  0  0  0  0  0  0  0
  1  2  1  0
  2  3  2  0
  3  4  1  0
  4  5  1  0
  5  6  1  0
  6  7  1  0
  7  8  2  0
  7  9  1  0
  4 10  2  0
 10 11  1  0
 11 12  1  0
 11 13  2  0
 13 14  1  0
 14 15  1  0
 15 16  2  0
 16 17  1  0
 17 18  2  0
 18 19  1  0
 18 20  1  0
 20 21  1  0
 21 22  1  0
 21 23  1  0
 20 24  2  0
 13  2  1  0
 24 15  1  0
M  END
$$$$
