
     RDKit          3D

 22 22  0  0  0  0  0  0  0  0999 V2000
  -16.8632   19.8967  -31.0228 C   0  0  0  0  0  0  0  0  0  0  0  0
  -16.5456   18.4546  -31.1957 C   0  0  0  0  0  0  0  0  0  0  0  0
  -15.5172   18.1031  -32.1927 C   0  0  0  0  0  0  0  0  0  0  0  0
  -15.7264   18.4400  -33.6153 C   0  0  0  0  0  0  0  0  0  0  0  0
  -16.7691   17.9129  -34.3445 N   0  0  0  0  0  0  0  0  0  0  0  0
  -18.0789   18.3155  -34.0619 C   0  0  0  0  0  0  0  0  0  0  0  0
  -19.0446   17.1723  -33.8097 C   0  0  0  0  0  0  0  0  0  0  0  0
  -18.6529   15.9579  -34.6363 C   0  0  0  0  0  0  0  0  0  0  0  0
  -17.9026   16.5129  -35.8277 C   0  0  0  0  0  0  0  0  0  0  0  0
  -16.5628   17.1069  -35.4689 C   0  0  1  0  0  0  0  0  0  0  0  0
  -15.9980   17.7815  -36.6551 C   0  0  0  0  0  0  0  0  0  0  0  0
  -15.7233   19.0304  -36.6401 O   0  0  0  0  0  0  0  0  0  0  0  0
  -15.7513   17.0358  -37.8407 N   0  0  0  0  0  0  0  0  0  0  0  0
  -15.2137   17.6101  -39.0112 C   0  0  0  0  0  0  0  0  0  0  0  0
  -16.0903   18.1299  -39.9385 C   0  0  0  0  0  0  0  0  0  0  0  0
  -17.5710   18.0993  -39.7392 C   0  0  0  0  0  0  0  0  0  0  0  0
  -15.5433   18.6884  -41.0731 C   0  0  0  0  0  0  0  0  0  0  0  0
  -14.1633   18.7318  -41.2853 C   0  0  0  0  0  0  0  0  0  0  0  0
  -13.3198   18.2007  -40.3327 C   0  0  0  0  0  0  0  0  0  0  0  0
  -13.8358   17.6359  -39.1889 C   0  0  0  0  0  0  0  0  0  0  0  0
  -12.9179   17.0597  -38.1503 C   0  0  0  0  0  0  0  0  0  0  0  0
  -15.9501   17.7533  -36.5025 Cl  0  0  0  0  0  0  0  0  0  0  0  0
  1  2  1  0
  2  3  1  0
  3  4  1  0
  4  5  1  0
  5  6  1  0
  6  7  1  0
  7  8  1  0
  8  9  1  0
  9 10  1  0
 10 11  1  6
 11 12  2  0
 11 13  1  0
 13 14  1  0
 14 15  2  0
 15 16  1  0
 15 17  1  0
 17 18  2  0
 18 19  1  0
 19 20  2  0
 20 21  1  0
 10  5  1  0
 20 14  1  0
M  END
$$$$
