
     RDKit          3D

 32 35  0  0  0  0  0  0  0  0999 V2000
  -17.9377   39.0560  -19.7489 O   0  0  0  0  0  0  0  0  0  0  0  0
  -18.8569   39.8683  -20.0244 C   0  0  0  0  0  0  0  0  0  0  0  0
  -19.6207   40.5045  -19.0520 C   0  0  0  0  0  0  0  0  0  0  0  0
  -20.6223   41.3901  -19.3676 C   0  0  0  0  0  0  0  0  0  0  0  0
  -21.4195   42.0538  -18.3434 C   0  0  0  0  0  0  0  0  0  0  0  0
  -22.5065   42.8250  -18.7435 C   0  0  0  0  0  0  0  0  0  0  0  0
  -23.3149   43.4875  -17.8443 C   0  0  0  0  0  0  0  0  0  0  0  0
  -23.0697   43.4079  -16.4854 C   0  0  0  0  0  0  0  0  0  0  0  0
  -23.8941   44.0822  -15.5859 O   0  0  0  0  0  0  0  0  0  0  0  0
  -21.9996   42.6500  -16.0748 C   0  0  0  0  0  0  0  0  0  0  0  0
  -21.7386   42.5584  -14.7195 O   0  0  0  0  0  0  0  0  0  0  0  0
  -21.1842   41.9807  -16.9955 C   0  0  0  0  0  0  0  0  0  0  0  0
  -20.8575   41.6373  -20.6555 O   0  0  0  0  0  0  0  0  0  0  0  0
  -20.1838   41.0800  -21.6282 C   0  0  0  0  0  0  0  0  0  0  0  0
  -20.4698   41.3730  -22.9636 C   0  0  0  0  0  0  0  0  0  0  0  0
  -19.7717   40.7963  -24.0014 C   0  0  0  0  0  0  0  0  0  0  0  0
  -20.0147   41.0514  -25.3248 O   0  0  0  0  0  0  0  0  0  0  0  0
  -21.1505   40.7312  -26.0613 C   0  0  2  0  0  0  0  0  0  0  0  0
  -20.8376   39.5749  -26.8140 O   0  0  0  0  0  0  0  0  0  0  0  0
  -22.0858   39.0989  -27.2749 C   0  0  2  0  0  0  0  0  0  0  0  0
  -21.7797   37.8093  -28.0309 C   0  0  0  0  0  0  0  0  0  0  0  0
  -21.3246   36.8168  -27.1641 O   0  0  0  0  0  0  0  0  0  0  0  0
  -22.7422   40.0960  -28.1875 C   0  0  1  0  0  0  0  0  0  0  0  0
  -23.9503   40.5862  -27.6522 O   0  0  0  0  0  0  0  0  0  0  0  0
  -21.8383   41.2988  -28.4078 C   0  0  2  0  0  0  0  0  0  0  0  0
  -20.7624   40.8635  -29.1785 O   0  0  0  0  0  0  0  0  0  0  0  0
  -21.3798   41.8377  -27.0784 C   0  0  1  0  0  0  0  0  0  0  0  0
  -22.2814   42.7859  -26.6023 O   0  0  0  0  0  0  0  0  0  0  0  0
  -18.7677   39.9083  -23.6771 C   0  0  0  0  0  0  0  0  0  0  0  0
  -18.4636   39.5997  -22.3524 C   0  0  0  0  0  0  0  0  0  0  0  0
  -17.4450   38.6992  -22.0364 O   0  0  0  0  0  0  0  0  0  0  0  0
  -19.1679   40.1825  -21.3367 C   0  0  0  0  0  0  0  0  0  0  0  0
  1  2  2  0
  2  3  1  0
  3  4  2  0
  4  5  1  0
  5  6  2  0
  6  7  1  0
  7  8  2  0
  8  9  1  0
  8 10  1  0
 10 11  1  0
 10 12  2  0
  4 13  1  0
 13 14  1  0
 14 15  2  0
 15 16  1  0
 16 17  1  0
 18 17  1  1
 18 19  1  0
 19 20  1  0
 20 21  1  6
 21 22  1  0
 20 23  1  0
 23 24  1  1
 23 25  1  0
 25 26  1  6
 25 27  1  0
 27 28  1  1
 16 29  2  0
 29 30  1  0
 30 31  1  0
 30 32  2  0
 32  2  1  0
 12  5  1  0
 32 14  1  0
 27 18  1  0
M  END
$$$$
