
     RDKit          3D

 30 31  0  0  0  0  0  0  0  0999 V2000
  -18.7049   32.4544  -25.7622 C   0  0  0  0  0  0  0  0  0  0  0  0
  -19.4239   33.4371  -24.8682 C   0  0  0  0  0  0  0  0  0  0  0  0
  -19.8371   34.6256  -25.7274 C   0  0  0  0  0  0  0  0  0  0  0  0
  -18.5397   33.8783  -23.7108 C   0  0  0  0  0  0  0  0  0  0  0  0
  -19.4611   34.2217  -22.5658 C   0  0  2  0  0  0  0  0  0  0  0  0
  -19.9107   35.6062  -22.6394 N   0  0  0  0  0  0  0  0  0  0  0  0
  -21.1834   36.0315  -22.2403 C   0  0  0  0  0  0  0  0  0  0  0  0
  -21.9549   35.0909  -21.8326 O   0  0  0  0  0  0  0  0  0  0  0  0
  -21.7274   37.3933  -22.2365 C   0  0  1  0  0  0  0  0  0  0  0  0
  -20.7859   38.3287  -22.8609 N   0  0  0  0  0  0  0  0  0  0  0  0
  -20.1484   39.2817  -22.0272 C   0  0  0  0  0  0  0  0  0  0  0  0
  -20.3935   39.2933  -20.7936 O   0  0  0  0  0  0  0  0  0  0  0  0
  -19.2002   40.2606  -22.5911 C   0  0  0  0  0  0  0  0  0  0  0  0
  -18.8790   40.1893  -23.9295 C   0  0  0  0  0  0  0  0  0  0  0  0
  -17.9823   41.1071  -24.4852 C   0  0  0  0  0  0  0  0  0  0  0  0
  -17.4667   42.0490  -23.6251 C   0  0  0  0  0  0  0  0  0  0  0  0
  -17.7709   42.1394  -22.2920 C   0  0  0  0  0  0  0  0  0  0  0  0
  -17.2244   43.1360  -21.3855 C   0  0  0  0  0  0  0  0  0  0  0  0
  -17.4210   43.0924  -20.0322 C   0  0  0  0  0  0  0  0  0  0  0  0
  -16.8742   44.0759  -19.1977 C   0  0  0  0  0  0  0  0  0  0  0  0
  -16.1273   45.1095  -19.7107 C   0  0  0  0  0  0  0  0  0  0  0  0
  -15.9295   45.1532  -21.0737 C   0  0  0  0  0  0  0  0  0  0  0  0
  -16.4736   44.1786  -21.8821 C   0  0  0  0  0  0  0  0  0  0  0  0
  -18.6513   41.2115  -21.8228 N   0  0  0  0  0  0  0  0  0  0  0  0
  -22.9289   37.4266  -23.2001 C   0  0  1  0  0  0  0  0  0  0  0  0
  -23.5451   38.7831  -23.1476 C   0  0  0  0  0  0  0  0  0  0  0  0
  -22.4919   37.1046  -24.4957 O   0  0  0  0  0  0  0  0  0  0  0  0
  -18.6040   34.1154  -21.2269 B   0  0  0  0  0  0  0  0  0  0  0  0
  -18.1166   35.3045  -20.5355 O   0  0  0  0  0  0  0  0  0  0  0  0
  -17.9704   32.8103  -20.9739 O   0  0  0  0  0  0  0  0  0  0  0  0
  1  2  1  0
  2  3  1  0
  2  4  1  0
  5  4  1  6
  5  6  1  0
  6  7  1  0
  7  8  2  0
  7  9  1  0
  9 10  1  6
 10 11  1  0
 11 12  2  0
 11 13  1  0
 13 14  2  0
 14 15  1  0
 15 16  2  0
 16 17  1  0
 17 18  1  0
 18 19  2  0
 19 20  1  0
 20 21  2  0
 21 22  1  0
 22 23  2  0
 17 24  2  0
  9 25  1  0
 25 26  1  6
 25 27  1  0
  5 28  1  0
 28 29  1  0
 28 30  1  0
 24 13  1  0
 23 18  1  0
M  END
$$$$
