
     RDKit          3D

 22 21  0  0  0  0  0  0  0  0999 V2000
  -21.4006    1.3364  -31.9200 C   0  0  0  0  0  0  0  0  0  0  0  0
  -21.2556    0.8234  -33.2877 N   0  0  0  0  0  0  0  0  0  0  0  0
  -19.9599    0.7349  -33.8316 C   0  0  0  0  0  0  0  0  0  0  0  0
  -19.7466    0.1774  -35.0067 C   0  0  0  0  0  0  0  0  0  0  0  0
  -18.4515    0.0835  -35.5621 N   0  0  0  0  0  4  0  0  0  0  0  0
  -17.7163    1.0814  -35.4676 O   0  0  0  0  0  0  0  0  0  0  0  0
  -18.0831   -1.0928  -36.1672 O   0  0  0  0  0  1  0  0  0  0  0  0
  -18.7833    1.2217  -33.1376 N   0  0  0  0  0  0  0  0  0  0  0  0
  -18.0042    0.2389  -32.4637 C   0  0  0  0  0  0  0  0  0  0  0  0
  -16.7884    0.7909  -31.8072 C   0  0  0  0  0  0  0  0  0  0  0  0
  -15.6196    1.5828  -32.9154 S   0  0  0  0  0  0  0  0  0  0  0  0
  -13.9325    1.2350  -32.3219 C   0  0  0  0  0  0  0  0  0  0  0  0
  -13.7352   -0.2463  -32.5099 C   0  0  0  0  0  0  0  0  0  0  0  0
  -13.9721   -1.2675  -31.6277 C   0  0  0  0  0  0  0  0  0  0  0  0
  -13.6318   -2.4155  -32.3005 C   0  0  0  0  0  0  0  0  0  0  0  0
  -13.1984   -2.0731  -33.5650 C   0  0  0  0  0  0  0  0  0  0  0  0
  -12.7604   -3.1069  -34.5412 C   0  0  0  0  0  0  0  0  0  0  0  0
  -13.7483   -3.4658  -35.4709 N   0  0  0  0  0  0  0  0  0  0  0  0
  -15.0285   -3.8670  -35.0156 C   0  0  0  0  0  0  0  0  0  0  0  0
  -13.3304   -4.0980  -36.6778 C   0  0  0  0  0  0  0  0  0  0  0  0
  -13.2793   -0.7783  -33.6375 O   0  0  0  0  0  0  0  0  0  0  0  0
  -16.6185   -0.2784  -33.4358 Cl  0  0  0  0  0  0  0  0  0  0  0  0
  1  2  1  0
  2  3  1  0
  3  4  2  3
  4  5  1  0
  5  6  2  0
  5  7  1  0
  3  8  1  0
  8  9  1  0
  9 10  1  0
 10 11  1  0
 11 12  1  0
 12 13  1  0
 13 14  2  0
 14 15  1  0
 15 16  2  0
 16 17  1  0
 17 18  1  0
 18 19  1  0
 18 20  1  0
 16 21  1  0
 21 13  1  0
M  CHG  2   5   1   7  -1
M  END
$$$$
