
     RDKit          3D

 33 33  0  0  0  0  0  0  0  0999 V2000
  -12.8984   48.2580  -17.6636 N   0  0  0  0  0  0  0  0  0  0  0  0
  -13.7038   47.6888  -18.6696 C   0  0  0  0  0  0  0  0  0  0  0  0
  -13.6321   48.1443  -19.9442 N   0  0  0  0  0  0  0  0  0  0  0  0
  -14.4005   47.6029  -20.9094 C   0  0  0  0  0  0  0  0  0  0  0  0
  -15.2654   46.6008  -20.6723 N   0  0  0  0  0  0  0  0  0  0  0  0
  -15.3841   46.1027  -19.4245 C   0  0  0  0  0  0  0  0  0  0  0  0
  -14.5950   46.6606  -18.4402 C   0  0  0  0  0  0  0  0  0  0  0  0
  -14.9147   45.9809  -17.3100 N   0  0  0  0  0  0  0  0  0  0  0  0
  -15.8487   45.0605  -17.5995 C   0  0  0  0  0  0  0  0  0  0  0  0
  -16.1498   45.1247  -18.9088 N   0  0  0  0  0  0  0  0  0  0  0  0
  -17.0935   44.3313  -19.6610 C   0  0  2  0  0  0  0  0  0  0  0  0
  -17.5137   43.2193  -18.9459 O   0  0  0  0  0  0  0  0  0  0  0  0
  -18.2076   42.4690  -19.8658 C   0  0  2  0  0  0  0  0  0  0  0  0
  -18.2907   41.0154  -19.4250 C   0  0  0  0  0  0  0  0  0  0  0  0
  -19.0144   40.3508  -20.4319 O   0  0  0  0  0  0  0  0  0  0  0  0
  -19.1440   38.7227  -20.0025 P   0  0  0  0  0  5  0  0  0  0  0  0
  -19.1546   38.6315  -18.5098 O   0  0  0  0  0  0  0  0  0  0  0  0
  -17.8591   37.8205  -20.6788 O   0  0  0  0  0  0  0  0  0  0  0  0
  -20.5674   38.1311  -20.6980 O   0  0  0  0  0  0  0  0  0  0  0  0
  -20.3215   36.7113  -21.5473 P   0  0  0  0  0  5  0  0  0  0  0  0
  -19.3438   35.8009  -20.8299 O   0  0  0  0  0  0  0  0  0  0  0  0
  -21.8265   35.9331  -21.7164 O   0  0  0  0  0  1  0  0  0  0  0  0
  -19.6700   36.9920  -23.0921 O   0  0  0  0  0  0  0  0  0  0  0  0
  -18.9710   35.5161  -23.5899 P   0  0  0  0  0  5  0  0  0  0  0  0
  -17.7807   35.1824  -22.7191 O   0  0  0  0  0  0  0  0  0  0  0  0
  -18.5110   35.5977  -25.2276 O   0  0  0  0  0  1  0  0  0  0  0  0
  -20.0923   34.2555  -23.4568 O   0  0  0  0  0  0  0  0  0  0  0  0
  -17.5287   42.6129  -21.1958 C   0  0  1  0  0  0  0  0  0  0  0  0
  -18.4539   43.1348  -22.1009 O   0  0  0  0  0  0  0  0  0  0  0  0
  -16.5203   43.7318  -20.9031 C   0  0  1  0  0  0  0  0  0  0  0  0
  -16.4908   44.6111  -21.9796 O   0  0  0  0  0  0  0  0  0  0  0  0
  -17.2875   42.1880  -20.4829 Na  0  0  0  0  0 15  0  0  0  0  0  0
  -17.2875   42.1880  -20.4829 Na  0  0  0  0  0 15  0  0  0  0  0  0
  1  2  1  0
  2  3  2  0
  3  4  1  0
  4  5  2  0
  5  6  1  0
  6  7  2  0
  7  8  1  0
  8  9  2  0
  9 10  1  0
 11 10  1  1
 11 12  1  0
 12 13  1  0
 13 14  1  1
 14 15  1  0
 15 16  1  0
 16 17  2  0
 16 18  1  0
 16 19  1  0
 19 20  1  0
 20 21  2  0
 20 22  1  0
 20 23  1  0
 23 24  1  0
 24 25  2  0
 24 26  1  0
 24 27  1  0
 13 28  1  0
 28 29  1  6
 28 30  1  0
 30 31  1  6
  7  2  1  0
 30 11  1  0
 10  6  1  0
M  CHG  4  22  -1  26  -1  32   1  33   1
M  END
$$$$
