
     RDKit          3D

 20 22  0  0  0  0  0  0  0  0999 V2000
  -13.2465   -5.3388  -36.0267 C   0  0  0  0  0  0  0  0  0  0  0  0
  -12.0398   -4.5761  -36.3863 N   0  0  0  0  0  0  0  0  0  0  0  0
  -11.6303   -5.1065  -37.6685 C   0  0  0  0  0  0  0  0  0  0  0  0
  -12.4829   -3.1831  -36.6036 C   0  0  0  0  0  0  0  0  0  0  0  0
  -13.4816   -2.8528  -35.4783 C   0  0  0  0  0  0  0  0  0  0  0  0
  -13.0118   -1.7351  -34.6358 C   0  0  0  0  0  0  0  0  0  0  0  0
  -11.7502   -1.1967  -34.6838 C   0  0  0  0  0  0  0  0  0  0  0  0
  -11.7807   -0.1310  -33.8650 N   0  0  0  0  0  0  0  0  0  0  0  0
  -13.0104    0.0142  -33.3072 C   0  0  0  0  0  0  0  0  0  0  0  0
  -13.5357    0.8798  -32.3775 C   0  0  0  0  0  0  0  0  0  0  0  0
  -14.8387    0.7429  -31.9132 C   0  0  0  0  0  0  0  0  0  0  0  0
  -15.6731   -0.2762  -32.3674 C   0  0  0  0  0  0  0  0  0  0  0  0
  -17.0215   -0.4806  -31.7827 C   0  0  0  0  0  0  0  0  0  0  0  0
  -16.9576   -1.4817  -30.7524 N   0  0  0  0  0  0  0  0  0  0  0  0
  -17.0933   -2.8060  -30.8483 C   0  0  0  0  0  0  0  0  0  0  0  0
  -16.9864   -3.3138  -29.6185 N   0  0  0  0  0  0  0  0  0  0  0  0
  -16.7828   -2.3433  -28.7252 C   0  0  0  0  0  0  0  0  0  0  0  0
  -16.7690   -1.2035  -29.4577 N   0  0  0  0  0  0  0  0  0  0  0  0
  -15.1202   -1.1195  -33.3031 C   0  0  0  0  0  0  0  0  0  0  0  0
  -13.8068   -0.9863  -33.7771 C   0  0  0  0  0  0  0  0  0  0  0  0
  1  2  1  0
  2  3  1  0
  2  4  1  0
  4  5  1  0
  5  6  1  0
  6  7  2  0
  7  8  1  0
  8  9  1  0
  9 10  2  0
 10 11  1  0
 11 12  2  0
 12 13  1  0
 13 14  1  0
 14 15  1  0
 15 16  2  0
 16 17  1  0
 17 18  2  0
 12 19  1  0
 19 20  2  0
 20  6  1  0
 20  9  1  0
 18 14  1  0
M  END
$$$$
