
     RDKit          3D

 11 11  0  0  0  0  0  0  0  0999 V2000
  -16.8938   37.6115  -22.3918 O   0  0  0  0  0  0  0  0  0  0  0  0
  -18.1378   37.4586  -22.2344 C   0  0  0  0  0  0  0  0  0  0  0  0
  -18.8988   38.6182  -22.2244 O   0  0  0  0  0  0  0  0  0  0  0  0
  -18.7168   36.1310  -22.0745 C   0  0  0  0  0  0  0  0  0  0  0  0
  -17.9898   35.0172  -22.4278 C   0  0  0  0  0  0  0  0  0  0  0  0
  -18.5246   33.7436  -22.2827 C   0  0  0  0  0  0  0  0  0  0  0  0
  -19.7925   33.5447  -21.7842 C   0  0  0  0  0  0  0  0  0  0  0  0
  -20.3394   32.2619  -21.6348 O   0  0  0  0  0  0  0  0  0  0  0  0
  -20.5092   34.6697  -21.4345 C   0  0  0  0  0  0  0  0  0  0  0  0
  -21.7936   34.4816  -20.9287 O   0  0  0  0  0  0  0  0  0  0  0  0
  -19.9875   35.9539  -21.5736 C   0  0  0  0  0  0  0  0  0  0  0  0
  1  2  2  0
  2  3  1  0
  2  4  1  0
  4  5  2  0
  5  6  1  0
  6  7  2  0
  7  8  1  0
  7  9  1  0
  9 10  1  0
  9 11  2  0
 11  4  1  0
M  END
$$$$
