
     RDKit          3D

 20 22  0  0  0  0  0  0  0  0999 V2000
  -15.1708   43.8657  -18.0611 N   0  0  0  0  0  0  0  0  0  0  0  0
  -16.2777   43.6903  -18.9199 C   0  0  0  0  0  0  0  0  0  0  0  0
  -16.7708   44.7225  -19.6528 N   0  0  0  0  0  0  0  0  0  0  0  0
  -17.8139   44.6022  -20.4761 C   0  0  0  0  0  0  0  0  0  0  0  0
  -18.3850   46.0061  -21.3907 Cl  0  0  0  0  0  0  0  0  0  0  0  0
  -18.4219   43.4126  -20.6029 N   0  0  0  0  0  0  0  0  0  0  0  0
  -18.0005   42.3348  -19.9149 C   0  0  0  0  0  0  0  0  0  0  0  0
  -16.9233   42.4813  -19.0716 C   0  0  0  0  0  0  0  0  0  0  0  0
  -16.7028   41.2818  -18.5111 N   0  0  0  0  0  0  0  0  0  0  0  0
  -17.6210   40.4318  -19.0011 C   0  0  0  0  0  0  0  0  0  0  0  0
  -18.4363   41.0542  -19.8707 N   0  0  0  0  0  0  0  0  0  0  0  0
  -19.5619   40.5026  -20.6262 C   0  0  2  0  0  0  0  0  0  0  0  0
  -19.5688   39.1407  -20.3868 O   0  0  0  0  0  0  0  0  0  0  0  0
  -19.2237   38.4819  -21.5319 C   0  0  2  0  0  0  0  0  0  0  0  0
  -18.5041   37.1860  -21.3063 C   0  0  0  0  0  0  0  0  0  0  0  0
  -18.0134   36.7578  -22.5392 O   0  0  0  0  0  0  0  0  0  0  0  0
  -18.4153   39.4779  -22.3282 C   0  0  1  0  0  0  0  0  0  0  0  0
  -18.2956   39.1414  -23.6607 O   0  0  0  0  0  0  0  0  0  0  0  0
  -19.3089   40.6830  -22.1130 C   0  0  1  0  0  0  0  0  0  0  0  0
  -20.4917   40.4556  -22.7778 O   0  0  0  0  0  0  0  0  0  0  0  0
  1  2  1  0
  2  3  2  0
  3  4  1  0
  4  5  1  0
  4  6  2  0
  6  7  1  0
  7  8  2  0
  8  9  1  0
  9 10  2  0
 10 11  1  0
 12 11  1  1
 12 13  1  0
 13 14  1  0
 14 15  1  1
 15 16  1  0
 14 17  1  0
 17 18  1  6
 17 19  1  0
 19 20  1  6
  8  2  1  0
 19 12  1  0
 11  7  1  0
M  END
$$$$
