
     RDKit          3D

 20 20  0  0  0  0  0  0  0  0999 V2000
  -24.4543   20.3635  -34.3801 C   0  0  0  0  0  0  0  0  0  0  0  0
  -23.5653   19.2150  -34.7748 C   0  0  0  0  0  0  0  0  0  0  0  0
  -22.9912   18.4914  -33.6159 C   0  0  0  0  0  0  0  0  0  0  0  0
  -22.4298   17.1450  -33.8489 C   0  0  0  0  0  0  0  0  0  0  0  0
  -23.3715   16.0285  -34.1177 C   0  0  0  0  0  0  0  0  0  0  0  0
  -22.0821   19.2295  -32.8766 O   0  0  0  0  0  0  0  0  0  0  0  0
  -21.7529   18.6916  -31.6438 C   0  0  2  0  0  0  0  0  0  0  0  0
  -22.7007   19.2582  -30.6473 C   0  0  0  0  0  0  0  0  0  0  0  0
  -22.5334   20.4975  -30.2067 C   0  0  0  0  0  0  0  0  0  0  0  0
  -23.3849   21.1244  -29.2600 C   0  0  0  0  0  0  0  0  0  0  0  0
  -24.5979   20.8076  -29.1689 O   0  0  0  0  0  0  0  0  0  0  0  0
  -22.8643   22.1095  -28.4165 O   0  0  0  0  0  0  0  0  0  0  0  0
  -21.3383   21.2589  -30.7478 C   0  0  0  0  0  0  0  0  0  0  0  0
  -20.1899   20.3044  -30.5250 C   0  0  2  0  0  0  0  0  0  0  0  0
  -18.9085   20.9634  -30.7541 N   0  0  0  0  0  0  0  0  0  0  0  0
  -20.3408   19.0792  -31.3284 C   0  0  1  0  0  0  0  0  0  0  0  0
  -19.5997   17.9527  -30.7584 N   0  0  0  0  0  0  0  0  0  0  0  0
  -18.4979   17.3982  -31.4404 C   0  0  0  0  0  0  0  0  0  0  0  0
  -17.9177   16.0659  -31.0658 C   0  0  0  0  0  0  0  0  0  0  0  0
  -17.9691   18.0182  -32.3928 O   0  0  0  0  0  0  0  0  0  0  0  0
  1  2  1  0
  2  3  1  0
  3  4  1  0
  4  5  1  0
  3  6  1  0
  7  6  1  6
  7  8  1  0
  8  9  2  0
  9 10  1  0
 10 11  2  0
 10 12  1  0
  9 13  1  0
 13 14  1  0
 14 15  1  6
 14 16  1  0
 16 17  1  1
 17 18  1  0
 18 19  1  0
 18 20  2  0
 16  7  1  0
M  END
$$$$
