
     RDKit          3D

 27 30  0  0  0  0  0  0  0  0999 V2000
  -29.2829   20.3819  -24.9335 C   0  0  0  0  0  0  0  0  0  0  0  0
  -28.4181   19.8737  -23.8686 N   0  0  0  0  0  0  0  0  0  0  0  0
  -27.3973   20.7424  -23.3170 C   0  0  0  0  0  0  0  0  0  0  0  0
  -28.6062   18.5560  -23.4145 C   0  0  0  0  0  0  0  0  0  0  0  0
  -27.8934   18.1197  -22.4804 O   0  0  0  0  0  0  0  0  0  0  0  0
  -29.6132   17.6866  -24.0080 C   0  0  0  0  0  0  0  0  0  0  0  0
  -29.4820   16.2949  -23.5486 N   0  0  0  0  0  0  0  0  0  0  0  0
  -30.1779   15.7262  -22.5501 C   0  0  0  0  0  0  0  0  0  0  0  0
  -29.7845   14.3961  -22.3973 C   0  0  0  0  0  0  0  0  0  0  0  0
  -30.2755   13.4092  -21.4375 C   0  0  0  0  0  0  0  0  0  0  0  0
  -30.6274   12.1377  -21.8743 C   0  0  0  0  0  0  0  0  0  0  0  0
  -31.1016   11.1756  -20.9783 C   0  0  0  0  0  0  0  0  0  0  0  0
  -31.2226   11.4878  -19.6452 C   0  0  0  0  0  0  0  0  0  0  0  0
  -31.6997   10.5192  -18.6871 C   0  0  0  0  0  0  0  0  0  0  0  0
  -33.0250   10.5319  -18.3110 C   0  0  0  0  0  0  0  0  0  0  0  0
  -33.5359    9.6347  -17.4464 N   0  0  0  0  0  0  0  0  0  0  0  0
  -32.7792    8.6819  -16.9070 C   0  0  0  0  0  0  0  0  0  0  0  0
  -31.4469    8.6280  -17.2513 C   0  0  0  0  0  0  0  0  0  0  0  0
  -30.6585    7.6525  -16.6910 C   0  0  0  0  0  0  0  0  0  0  0  0
  -29.3260    7.5869  -17.0135 C   0  0  0  0  0  0  0  0  0  0  0  0
  -28.7468    8.4806  -17.8929 C   0  0  0  0  0  0  0  0  0  0  0  0
  -29.5528    9.4670  -18.4572 C   0  0  0  0  0  0  0  0  0  0  0  0
  -30.8886    9.5503  -18.1493 C   0  0  0  0  0  0  0  0  0  0  0  0
  -30.8655   12.7624  -19.2341 C   0  0  0  0  0  0  0  0  0  0  0  0
  -30.3997   13.7179  -20.0944 C   0  0  0  0  0  0  0  0  0  0  0  0
  -28.8102   14.2186  -23.3728 C   0  0  0  0  0  0  0  0  0  0  0  0
  -28.6646   15.3820  -24.0353 N   0  0  0  0  0  0  0  0  0  0  0  0
  1  2  1  0
  2  3  1  0
  2  4  1  0
  4  5  2  0
  4  6  1  0
  6  7  1  0
  7  8  1  0
  8  9  2  0
  9 10  1  0
 10 11  2  0
 11 12  1  0
 12 13  2  0
 13 14  1  0
 14 15  2  0
 15 16  1  0
 16 17  2  0
 17 18  1  0
 18 19  2  0
 19 20  1  0
 20 21  2  0
 21 22  1  0
 22 23  2  0
 13 24  1  0
 24 25  2  0
  9 26  1  0
 26 27  2  0
 27  7  1  0
 25 10  1  0
 23 14  1  0
 23 18  1  0
M  END
$$$$
