
     RDKit          3D

 21 22  0  0  0  0  0  0  0  0999 V2000
  -27.2666   31.1211  -35.5996 C   0  0  0  0  0  0  0  0  0  0  0  0
  -26.2646   30.6385  -34.6677 N   0  0  0  0  0  0  0  0  0  0  0  0
  -26.4514   29.2654  -34.3794 C   0  0  0  0  0  0  0  0  0  0  0  0
  -26.1495   28.3508  -35.5947 C   0  0  0  0  0  0  0  0  0  0  0  0
  -26.3662   26.9665  -35.2099 C   0  0  0  0  0  0  0  0  0  0  0  0
  -26.1656   25.8518  -36.0254 N   0  0  0  0  0  0  0  0  0  0  0  0
  -24.8912   25.1811  -36.0392 C   0  0  0  0  0  0  0  0  0  0  0  0
  -23.8950   25.9917  -35.5704 C   0  0  0  0  0  0  0  0  0  0  0  0
  -22.6001   25.5385  -35.4925 C   0  0  0  0  0  0  0  0  0  0  0  0
  -22.2888   24.2425  -35.8925 C   0  0  0  0  0  0  0  0  0  0  0  0
  -23.2627   23.3950  -36.3699 C   0  0  0  0  0  0  0  0  0  0  0  0
  -24.5570   23.8952  -36.4308 C   0  0  0  0  0  0  0  0  0  0  0  0
  -25.4896   22.8629  -36.9471 C   0  0  0  0  0  0  0  0  0  0  0  0
  -26.2001   23.4172  -38.1321 C   0  0  0  0  0  0  0  0  0  0  0  0
  -27.2907   24.3547  -37.7826 C   0  0  0  0  0  0  0  0  0  0  0  0
  -28.4249   24.0801  -38.5068 C   0  0  0  0  0  0  0  0  0  0  0  0
  -29.5736   24.8394  -38.3611 C   0  0  0  0  0  0  0  0  0  0  0  0
  -29.5126   25.8772  -37.4561 C   0  0  0  0  0  0  0  0  0  0  0  0
  -28.3688   26.1453  -36.7333 C   0  0  0  0  0  0  0  0  0  0  0  0
  -27.2313   25.4130  -36.8596 C   0  0  0  0  0  0  0  0  0  0  0  0
  -26.2758   26.8824  -36.0439 Cl  0  0  0  0  0  0  0  0  0  0  0  0
  1  2  1  0
  2  3  1  0
  3  4  1  0
  4  5  1  0
  5  6  1  0
  6  7  1  0
  7  8  2  0
  8  9  1  0
  9 10  2  0
 10 11  1  0
 11 12  2  0
 12 13  1  0
 13 14  1  0
 14 15  1  0
 15 16  2  0
 16 17  1  0
 17 18  2  0
 18 19  1  0
 19 20  2  0
 20  6  1  0
 12  7  1  0
 20 15  1  0
M  END
$$$$
