
     RDKit          3D

 27 30  0  0  0  0  0  0  0  0999 V2000
  -13.0324   48.2773  -13.0228 C   0  0  0  0  0  0  0  0  0  0  0  0
  -13.2860   46.5197  -13.2445 S   0  0  0  0  0  6  0  0  0  0  0  0
  -14.4337   46.0258  -12.4362 O   0  0  0  0  0  0  0  0  0  0  0  0
  -12.0289   45.8264  -12.8188 O   0  0  0  0  0  0  0  0  0  0  0  0
  -13.5579   46.1616  -14.9241 N   0  0  0  0  0  0  0  0  0  0  0  0
  -14.2440   46.9084  -15.8266 C   0  0  0  0  0  0  0  0  0  0  0  0
  -14.2249   46.2726  -17.0448 C   0  0  0  0  0  0  0  0  0  0  0  0
  -13.5051   45.1146  -16.8553 C   0  0  0  0  0  0  0  0  0  0  0  0
  -13.1333   45.0982  -15.5814 N   0  0  0  0  0  0  0  0  0  0  0  0
  -13.4457   44.3686  -18.1548 C   0  0  0  0  0  0  0  0  0  0  0  0
  -13.9569   45.2919  -19.1385 N   0  0  0  0  0  0  0  0  0  0  0  0
  -14.6789   44.6671  -20.2042 C   0  0  1  0  0  0  0  0  0  0  0  0
  -14.3507   43.2291  -20.4220 C   0  0  0  0  0  0  0  0  0  0  0  0
  -15.3368   42.4728  -20.9854 O   0  0  0  0  0  0  0  0  0  0  0  0
  -16.5804   42.6258  -20.4006 C   0  0  2  0  0  0  0  0  0  0  0  0
  -17.5289   41.5903  -20.7827 C   0  0  0  0  0  0  0  0  0  0  0  0
  -17.7835   41.3669  -22.1229 C   0  0  0  0  0  0  0  0  0  0  0  0
  -18.6659   40.4078  -22.5724 C   0  0  0  0  0  0  0  0  0  0  0  0
  -18.9065   40.1991  -23.8931 F   0  0  0  0  0  0  0  0  0  0  0  0
  -19.3352   39.6254  -21.6716 C   0  0  0  0  0  0  0  0  0  0  0  0
  -19.1090   39.8163  -20.3096 C   0  0  0  0  0  0  0  0  0  0  0  0
  -18.2206   40.7833  -19.8845 C   0  0  0  0  0  0  0  0  0  0  0  0
  -17.9924   40.9782  -18.5660 F   0  0  0  0  0  0  0  0  0  0  0  0
  -17.0416   44.0278  -20.7720 C   0  0  1  0  0  0  0  0  0  0  0  0
  -18.4037   44.2705  -20.4224 N   0  0  0  0  0  0  0  0  0  0  0  0
  -16.1415   44.9543  -19.9895 C   0  0  0  0  0  0  0  0  0  0  0  0
  -14.6599   46.3309  -18.4566 C   0  0  0  0  0  0  0  0  0  0  0  0
  1  2  1  0
  2  3  2  0
  2  4  2  0
  2  5  1  0
  5  6  1  0
  6  7  2  0
  7  8  1  0
  8  9  2  0
  8 10  1  0
 10 11  1  0
 12 11  1  1
 12 13  1  0
 13 14  1  0
 14 15  1  0
 15 16  1  6
 16 17  2  0
 17 18  1  0
 18 19  1  0
 18 20  2  0
 20 21  1  0
 21 22  2  0
 22 23  1  0
 15 24  1  0
 24 25  1  1
 24 26  1  0
 11 27  1  0
  9  5  1  0
 26 12  1  0
 27  7  1  0
 22 16  1  0
M  END
$$$$
