
     RDKit          3D

  6  6  0  0  0  0  0  0  0  0999 V2000
  -20.2804   38.7474  -22.7287 N   0  0  0  0  0  0  0  0  0  0  0  0
  -19.4577   37.8535  -21.9946 C   0  0  0  0  0  0  0  0  0  0  0  0
  -18.1418   38.0434  -21.6832 N   0  0  0  0  0  0  0  0  0  0  0  0
  -17.7224   36.9789  -20.9846 C   0  0  0  0  0  0  0  0  0  0  0  0
  -18.7800   36.1619  -20.8808 N   0  0  0  0  0  0  0  0  0  0  0  0
  -19.8393   36.6693  -21.4832 N   0  0  0  0  0  0  0  0  0  0  0  0
  1  2  1  0
  2  3  1  0
  3  4  2  0
  4  5  1  0
  5  6  1  0
  6  2  2  0
M  END
$$$$
