
     RDKit          3D

 19 20  0  0  0  0  0  0  0  0999 V2000
  -18.2478   43.0357  -23.1627 O   0  0  0  0  0  0  0  0  0  0  0  0
  -19.3302   42.4308  -23.3747 C   0  0  0  0  0  0  0  0  0  0  0  0
  -19.7772   42.1439  -24.6568 O   0  0  0  0  0  0  0  0  0  0  0  0
  -20.1125   42.0354  -22.1794 C   0  0  0  0  0  0  0  0  0  0  0  0
  -20.2946   40.6001  -22.1058 N   0  0  0  0  0  0  0  0  0  0  0  0
  -19.2561   39.7481  -21.7129 C   0  0  0  0  0  0  0  0  0  0  0  0
  -18.1712   40.3420  -21.3831 O   0  0  0  0  0  0  0  0  0  0  0  0
  -19.2700   38.3145  -21.6397 C   0  0  0  0  0  0  0  0  0  0  0  0
  -18.1057   37.6401  -21.3845 N   0  0  0  0  0  0  0  0  0  0  0  0
  -18.0017   36.3314  -21.2956 C   0  0  0  0  0  0  0  0  0  0  0  0
  -16.4374   35.6057  -20.9622 Cl  0  0  0  0  0  0  0  0  0  0  0  0
  -19.0798   35.5213  -21.4560 C   0  0  0  0  0  0  0  0  0  0  0  0
  -18.9795   34.1424  -21.3642 C   0  0  0  0  0  0  0  0  0  0  0  0
  -20.0847   33.3338  -21.5298 C   0  0  0  0  0  0  0  0  0  0  0  0
  -21.2871   33.9589  -21.7896 C   0  0  0  0  0  0  0  0  0  0  0  0
  -21.4077   35.3212  -21.8844 C   0  0  0  0  0  0  0  0  0  0  0  0
  -20.2882   36.1191  -21.7155 C   0  0  0  0  0  0  0  0  0  0  0  0
  -20.3604   37.4972  -21.8020 C   0  0  0  0  0  0  0  0  0  0  0  0
  -21.5957   38.0264  -22.0630 O   0  0  0  0  0  0  0  0  0  0  0  0
  1  2  2  0
  2  3  1  0
  2  4  1  0
  4  5  1  0
  5  6  1  0
  6  7  2  0
  6  8  1  0
  8  9  2  0
  9 10  1  0
 10 11  1  0
 10 12  2  0
 12 13  1  0
 13 14  2  0
 14 15  1  0
 15 16  2  0
 16 17  1  0
 17 18  2  0
 18 19  1  0
 18  8  1  0
 17 12  1  0
M  END
$$$$
