
     RDKit          3D

 13 14  0  0  0  0  0  0  0  0999 V2000
  -19.2915   40.1188  -18.2024 S   0  0  0  0  0  0  0  0  0  0  0  0
  -18.3476   40.9109  -19.4032 C   0  0  0  0  0  0  0  0  0  0  0  0
  -18.1287   40.8061  -20.7002 N   0  0  0  0  0  0  0  0  0  0  0  0
  -17.3445   41.5727  -21.3150 N   0  0  0  0  0  0  0  0  0  0  0  0
  -16.6790   42.5010  -20.8554 C   0  0  0  0  0  0  0  0  0  0  0  0
  -15.7657   43.5037  -21.1831 N   0  0  0  0  0  0  0  0  0  0  0  0
  -15.1094   44.2483  -20.1864 C   0  0  0  0  0  0  0  0  0  0  0  0
  -14.0254   45.0385  -20.5046 C   0  0  0  0  0  0  0  0  0  0  0  0
  -13.3460   45.7892  -19.5628 C   0  0  0  0  0  0  0  0  0  0  0  0
  -13.7441   45.7665  -18.2493 C   0  0  0  0  0  0  0  0  0  0  0  0
  -14.8228   44.9881  -17.8965 C   0  0  0  0  0  0  0  0  0  0  0  0
  -15.4900   44.2413  -18.8649 C   0  0  0  0  0  0  0  0  0  0  0  0
  -17.2078   42.3682  -19.0849 S   0  0  0  0  0  0  0  0  0  0  0  0
  1  2  1  0
  2  3  2  0
  3  4  1  0
  4  5  2  0
  5  6  1  0
  6  7  1  0
  7  8  2  0
  8  9  1  0
  9 10  2  0
 10 11  1  0
 11 12  2  0
  5 13  1  0
 13  2  1  0
 12  7  1  0
M  END
$$$$
