
     RDKit          3D

 31 33  0  0  0  0  0  0  0  0999 V2000
  -11.3435   41.5911  -15.2420 C   0  0  0  0  0  0  0  0  0  0  0  0
  -12.4365   42.5604  -15.6337 C   0  0  0  0  0  0  0  0  0  0  0  0
  -12.5634   42.6151  -17.0413 O   0  0  0  0  0  0  0  0  0  0  0  0
  -13.5097   43.4291  -17.6513 C   0  0  0  0  0  0  0  0  0  0  0  0
  -14.2654   44.1306  -16.9373 O   0  0  0  0  0  0  0  0  0  0  0  0
  -13.6615   43.5030  -19.0551 N   0  0  0  0  0  0  0  0  0  0  0  0
  -14.6213   44.3257  -19.6908 C   0  0  0  0  0  0  0  0  0  0  0  0
  -14.3756   45.6272  -20.0590 C   0  0  0  0  0  0  0  0  0  0  0  0
  -15.3096   46.4067  -20.6854 C   0  0  0  0  0  0  0  0  0  0  0  0
  -16.5702   45.8577  -20.9662 C   0  0  0  0  0  0  0  0  0  0  0  0
  -16.7880   44.5331  -20.5831 C   0  0  0  0  0  0  0  0  0  0  0  0
  -15.8607   43.7734  -19.9616 C   0  0  0  0  0  0  0  0  0  0  0  0
  -18.0000   43.7706  -20.8355 N   0  0  0  0  0  0  0  0  0  0  0  0
  -17.9194   42.4100  -21.1077 C   0  0  0  0  0  0  0  0  0  0  0  0
  -16.7431   41.9007  -21.0099 O   0  0  0  0  0  0  0  0  0  0  0  0
  -18.9942   41.5199  -21.5025 C   0  0  0  0  0  0  0  0  0  0  0  0
  -18.5454   40.1359  -21.7035 N   0  0  0  0  0  0  0  0  0  0  0  0
  -19.6327   39.3630  -22.3150 C   0  0  0  0  0  0  0  0  0  0  0  0
  -19.0897   37.9612  -22.5139 C   0  0  0  0  0  0  0  0  0  0  0  0
  -18.6211   37.3997  -21.3360 O   0  0  0  0  0  0  0  0  0  0  0  0
  -17.6041   38.1596  -20.7634 C   0  0  0  0  0  0  0  0  0  0  0  0
  -18.1863   39.5176  -20.4369 C   0  0  0  0  0  0  0  0  0  0  0  0
  -19.2721   44.4413  -20.8415 C   0  0  0  0  0  0  0  0  0  0  0  0
  -20.1906   43.7179  -20.1247 C   0  0  0  0  0  0  0  0  0  0  0  0
  -21.4649   44.1995  -20.0630 C   0  0  0  0  0  0  0  0  0  0  0  0
  -21.7911   45.3892  -20.7130 C   0  0  0  0  0  0  0  0  0  0  0  0
  -20.8759   46.1262  -21.4330 C   0  0  0  0  0  0  0  0  0  0  0  0
  -19.5794   45.6251  -21.4910 C   0  0  0  0  0  0  0  0  0  0  0  0
  -18.6306   46.4367  -22.2606 C   0  0  0  0  0  0  0  0  0  0  0  0
  -17.4108   46.8673  -21.5657 C   0  0  0  0  0  0  0  0  0  0  0  0
  -16.5960   43.1645  -19.8240 Cl  0  0  0  0  0  0  0  0  0  0  0  0
  1  2  1  0
  2  3  1  0
  3  4  1  0
  4  5  2  0
  4  6  1  0
  6  7  1  0
  7  8  2  0
  8  9  1  0
  9 10  2  0
 10 11  1  0
 11 12  2  0
 11 13  1  0
 13 14  1  0
 14 15  2  0
 14 16  1  0
 16 17  1  0
 17 18  1  0
 18 19  1  0
 19 20  1  0
 20 21  1  0
 21 22  1  0
 13 23  1  0
 23 24  2  0
 24 25  1  0
 25 26  2  0
 26 27  1  0
 27 28  2  0
 28 29  1  0
 29 30  1  0
 12  7  1  0
 22 17  1  0
 28 23  1  0
 30 10  1  0
M  END
$$$$
