
     RDKit          3D

 27 29  0  0  0  0  0  0  0  0999 V2000
  -21.2323   44.6120  -17.6290 C   0  0  0  0  0  0  0  0  0  0  0  0
  -21.0256   43.4615  -17.6798 C   0  0  0  0  0  0  0  0  0  0  0  0
  -20.7492   42.0459  -17.7407 C   0  0  0  0  0  0  0  0  0  0  0  0
  -21.4608   41.5063  -18.8217 O   0  0  0  0  0  0  0  0  0  0  0  0
  -21.1009   40.3755  -19.5106 C   0  0  0  0  0  0  0  0  0  0  0  0
  -21.4857   39.0844  -19.5701 C   0  0  0  0  0  0  0  0  0  0  0  0
  -20.8739   38.1710  -20.4989 C   0  0  0  0  0  0  0  0  0  0  0  0
  -19.8648   38.5942  -21.3527 C   0  0  0  0  0  0  0  0  0  0  0  0
  -19.4293   39.9201  -21.3033 C   0  0  0  0  0  0  0  0  0  0  0  0
  -20.0446   40.6873  -20.4266 C   0  0  0  0  0  0  0  0  0  0  0  0
  -18.4295   40.3663  -22.1387 C   0  0  0  0  0  0  0  0  0  0  0  0
  -17.8835   41.6576  -21.8082 C   0  0  0  0  0  0  0  0  0  0  0  0
  -17.9316   42.5846  -22.8457 C   0  0  0  0  0  0  0  0  0  0  0  0
  -17.4941   43.8516  -22.6613 C   0  0  0  0  0  0  0  0  0  0  0  0
  -16.9763   44.3405  -21.4738 C   0  0  0  0  0  0  0  0  0  0  0  0
  -16.5202   45.7393  -21.3024 C   0  0  0  0  0  0  0  0  0  0  0  0
  -17.1715   46.7060  -22.2730 C   0  0  0  0  0  0  0  0  0  0  0  0
  -15.0119   45.7096  -21.5722 C   0  0  0  0  0  0  0  0  0  0  0  0
  -16.9213   43.4028  -20.4571 C   0  0  0  0  0  0  0  0  0  0  0  0
  -17.3775   42.0665  -20.6263 C   0  0  0  0  0  0  0  0  0  0  0  0
  -17.8807   39.5305  -23.0403 N   0  0  0  0  0  0  0  0  0  0  0  0
  -18.3254   38.2881  -23.0761 C   0  0  0  0  0  0  0  0  0  0  0  0
  -17.8556   37.4492  -23.8950 O   0  0  0  0  0  0  0  0  0  0  0  0
  -19.2886   37.8014  -22.2628 N   0  0  0  0  0  0  0  0  0  0  0  0
  -19.6392   36.3757  -22.2772 C   0  0  0  0  0  0  0  0  0  0  0  0
  -18.6187   35.5140  -21.5883 C   0  0  0  0  0  0  0  0  0  0  0  0
  -20.1510   35.8854  -23.5896 C   0  0  0  0  0  0  0  0  0  0  0  0
  1  2  3  0
  2  3  1  0
  3  4  1  0
  4  5  1  0
  5  6  2  0
  6  7  1  0
  7  8  2  0
  8  9  1  0
  9 10  2  0
  9 11  1  0
 11 12  1  0
 12 13  2  0
 13 14  1  0
 14 15  2  0
 15 16  1  0
 16 17  1  0
 16 18  1  0
 15 19  1  0
 19 20  2  0
 11 21  2  0
 21 22  1  0
 22 23  2  0
 22 24  1  0
 24 25  1  0
 25 26  1  0
 25 27  1  0
 10  5  1  0
 20 12  1  0
 24  8  1  0
M  END
$$$$
