
     RDKit          3D

 23 25  0  0  0  0  0  0  0  0999 V2000
  -21.6937   34.3751  -22.0160 O   0  0  0  0  0  0  0  0  0  0  0  0
  -21.3023   35.2990  -21.2579 C   0  0  0  0  0  0  0  0  0  0  0  0
  -21.5232   35.1719  -19.9125 O   0  0  0  0  0  0  0  0  0  0  0  0
  -20.6225   36.4877  -21.8125 C   0  0  0  0  0  0  0  0  0  0  0  0
  -20.3346   36.7480  -23.1336 C   0  0  0  0  0  0  0  0  0  0  0  0
  -19.7116   37.9406  -23.1804 N   0  0  0  0  0  0  0  0  0  0  0  0
  -19.5840   38.4572  -21.9725 N   0  0  0  0  0  0  0  0  0  0  0  0
  -18.9698   39.7188  -21.6348 C   0  0  0  0  0  0  0  0  0  0  0  0
  -18.4837   40.6413  -22.4844 N   0  0  0  0  0  0  0  0  0  0  0  0
  -17.9840   41.6956  -21.7983 C   0  0  0  0  0  0  0  0  0  0  0  0
  -17.3818   42.8843  -22.1758 C   0  0  0  0  0  0  0  0  0  0  0  0
  -16.9572   43.8041  -21.2445 C   0  0  0  0  0  0  0  0  0  0  0  0
  -16.2006   45.2963  -21.7376 Cl  0  0  0  0  0  0  0  0  0  0  0  0
  -17.1553   43.4949  -19.9180 C   0  0  0  0  0  0  0  0  0  0  0  0
  -16.7546   44.3699  -18.9326 O   0  0  0  0  0  0  0  0  0  0  0  0
  -15.5216   44.1120  -18.2824 C   0  0  0  0  0  0  0  0  0  0  0  0
  -15.2630   45.1083  -17.3523 F   0  0  0  0  0  0  0  0  0  0  0  0
  -14.4710   44.1080  -19.1996 F   0  0  0  0  0  0  0  0  0  0  0  0
  -15.5953   42.8667  -17.7151 F   0  0  0  0  0  0  0  0  0  0  0  0
  -17.7541   42.3136  -19.5317 C   0  0  0  0  0  0  0  0  0  0  0  0
  -18.1730   41.4053  -20.4628 C   0  0  0  0  0  0  0  0  0  0  0  0
  -18.7788   40.1889  -20.3875 N   0  0  0  0  0  0  0  0  0  0  0  0
  -20.1401   37.5747  -21.1174 C   0  0  0  0  0  0  0  0  0  0  0  0
  1  2  2  0
  2  3  1  0
  2  4  1  0
  4  5  1  0
  5  6  2  0
  6  7  1  0
  7  8  1  0
  8  9  2  0
  9 10  1  0
 10 11  2  0
 11 12  1  0
 12 13  1  0
 12 14  2  0
 14 15  1  0
 15 16  1  0
 16 17  1  0
 16 18  1  0
 16 19  1  0
 14 20  1  0
 20 21  2  0
 21 22  1  0
  7 23  1  0
 23  4  2  0
 22  8  1  0
 21 10  1  0
M  END
$$$$
