
     RDKit          3D

 35 36  0  0  0  0  0  0  0  0999 V2000
  -15.8943   13.5894  -29.6006 Cl  0  0  0  0  0  0  0  0  0  0  0  0
  -15.8952   13.5897  -29.6010 Cl  0  0  0  0  0  0  0  0  0  0  0  0
  -15.8959   13.5900  -29.6013 Cl  0  0  0  0  0  0  0  0  0  0  0  0
  -15.8915   13.5884  -29.5994 Cl  0  0  0  0  0  0  0  0  0  0  0  0
  -22.4844   13.7635  -32.6442 C   0  0  0  0  0  0  0  0  0  0  0  0
  -21.7630   13.3023  -31.5625 C   0  0  0  0  0  0  0  0  0  0  0  0
  -20.8195   14.1142  -30.9898 C   0  0  0  0  0  0  0  0  0  0  0  0
  -20.6152   15.3885  -31.5193 C   0  0  0  0  0  0  0  0  0  0  0  0
  -19.6492   16.1977  -30.9193 C   0  0  0  0  0  0  0  0  0  0  0  0
  -18.8831   15.7260  -29.7813 C   0  0  0  0  0  0  0  0  0  0  0  0
  -19.2147   15.8643  -28.4513 C   0  0  0  0  0  0  0  0  0  0  0  0
  -18.2270   15.2829  -27.7262 N   0  0  0  0  0  0  0  0  0  0  0  0
  -17.2906   14.7857  -28.5295 N   0  0  0  0  0  0  0  0  0  0  0  0
  -16.1503   14.1347  -28.2426 C   0  0  0  0  0  0  0  0  0  0  0  0
  -15.3314   13.7110  -29.2524 C   0  0  0  0  0  0  0  0  0  0  0  0
  -14.1124   13.0143  -28.9192 C   0  0  0  0  0  0  0  0  0  0  0  0
  -14.0924   12.2285  -27.7871 C   0  0  0  0  0  0  0  0  0  0  0  0
  -12.9274   11.5433  -27.4400 C   0  0  0  0  0  0  0  0  0  0  0  0
  -11.7853   11.6376  -28.2144 C   0  0  0  0  0  0  0  0  0  0  0  0
  -10.6309   10.9178  -27.8026 N   0  0  0  0  0  0  0  0  0  0  0  0
   -9.3997   10.8310  -28.5460 C   0  0  0  0  0  0  0  0  0  0  0  0
   -8.3328   11.5007  -27.6800 C   0  0  0  0  0  0  0  0  0  0  0  0
   -8.2549   10.8329  -26.4048 N   0  0  0  0  0  0  0  0  0  0  0  0
   -9.2127    9.7703  -26.2465 C   0  0  0  0  0  0  0  0  0  0  0  0
  -10.6321   10.1867  -26.5217 C   0  0  0  0  0  0  0  0  0  0  0  0
  -11.8086   12.4247  -29.3465 C   0  0  0  0  0  0  0  0  0  0  0  0
  -12.9772   13.1114  -29.6938 C   0  0  0  0  0  0  0  0  0  0  0  0
  -15.7162   13.9743  -30.5561 C   0  0  0  0  0  0  0  0  0  0  0  0
  -16.8655   14.6286  -30.7947 N   0  0  0  0  0  0  0  0  0  0  0  0
  -17.6860   15.0541  -29.8074 C   0  0  0  0  0  0  0  0  0  0  0  0
  -19.4575   17.4683  -31.4604 C   0  0  0  0  0  0  0  0  0  0  0  0
  -20.2125   17.8546  -32.5351 C   0  0  0  0  0  0  0  0  0  0  0  0
  -21.1426   17.0636  -33.1057 N   0  0  0  0  0  0  0  0  0  0  0  0
  -21.3465   15.8340  -32.6027 C   0  0  0  0  0  0  0  0  0  0  0  0
  -22.2996   15.0164  -33.1828 C   0  0  0  0  0  0  0  0  0  0  0  0
  5  6  2  0
  6  7  1  0
  7  8  2  0
  8  9  1  0
  9 10  1  0
 10 11  1  0
 11 12  2  0
 12 13  1  0
 13 14  1  0
 14 15  2  0
 15 16  1  0
 16 17  2  0
 17 18  1  0
 18 19  2  0
 19 20  1  0
 20 21  1  0
 21 22  1  0
 22 23  1  0
 23 24  1  0
 24 25  1  0
 19 26  1  0
 26 27  2  0
 15 28  1  0
 28 29  2  0
 29 30  1  0
  9 31  2  0
 31 32  1  0
 32 33  2  0
 33 34  1  0
 34 35  2  0
 35  5  1  0
 34  8  1  0
 30 10  2  0
 30 13  1  0
 27 16  1  0
 25 20  1  0
M  END
$$$$
