
     RDKit          3D

  9  9  0  0  0  0  0  0  0  0999 V2000
  -16.5053   14.0865  -27.2769 N   0  0  0  0  0  0  0  0  0  0  0  0
  -16.3083   14.5579  -28.5983 C   0  0  0  0  0  0  0  0  0  0  0  0
  -15.1652   14.6237  -29.1196 O   0  0  0  0  0  0  0  0  0  0  0  0
  -17.4717   14.9875  -29.3972 C   0  0  0  0  0  0  0  0  0  0  0  0
  -17.3124   15.4534  -30.6853 C   0  0  0  0  0  0  0  0  0  0  0  0
  -18.4210   15.8591  -31.4366 C   0  0  0  0  0  0  0  0  0  0  0  0
  -19.6975   15.7953  -30.8875 C   0  0  0  0  0  0  0  0  0  0  0  0
  -19.8611   15.3298  -29.5990 C   0  0  0  0  0  0  0  0  0  0  0  0
  -18.7462   14.9399  -28.8917 C   0  0  0  0  0  0  0  0  0  0  0  0
  1  2  1  0
  2  3  2  0
  2  4  1  0
  4  5  2  0
  5  6  1  0
  6  7  2  0
  7  8  1  0
  8  9  2  0
  9  4  1  0
M  END
$$$$
