
     RDKit          3D

 15 15  0  0  0  0  0  0  0  0999 V2000
  -19.1085   39.4303  -21.9757 Cl  0  0  0  0  0  0  0  0  0  0  0  0
  -17.9303   37.4472  -20.2330 Cl  0  0  0  0  0  0  0  0  0  0  0  0
  -18.6651   37.7860  -21.8034 C   0  0  0  0  0  0  0  0  0  0  0  0
  -18.2774   36.9782  -22.8487 C   0  0  0  0  0  0  0  0  0  0  0  0
  -18.8346   37.2138  -24.1030 C   0  0  0  0  0  0  0  0  0  0  0  0
  -19.7504   38.2379  -24.2679 C   0  0  0  0  0  0  0  0  0  0  0  0
  -20.1270   39.0369  -23.2099 C   0  0  0  0  0  0  0  0  0  0  0  0
  -21.2970   40.3436  -23.4255 Cl  0  0  0  0  0  0  0  0  0  0  0  0
  -19.5787   38.8100  -21.9608 C   0  0  0  0  0  0  0  0  0  0  0  0
  -19.9098   39.5792  -20.8317 N   0  0  0  0  0  0  0  0  0  0  0  0
  -19.2122   40.7671  -20.4432 C   0  0  0  0  0  0  0  0  0  0  0  0
  -18.2689   41.3113  -21.1341 N   0  0  0  0  0  0  0  0  0  0  0  0
  -17.7635   42.5007  -20.4758 C   0  0  0  0  0  0  0  0  0  0  0  0
  -18.8527   42.8246  -19.5065 C   0  0  0  0  0  0  0  0  0  0  0  0
  -19.4439   41.5235  -19.2539 N   0  0  0  0  0  0  0  0  0  0  0  0
  2  3  1  0
  3  4  2  0
  4  5  1  0
  5  6  2  0
  6  7  1  0
  7  8  1  0
  7  9  2  0
  9 10  1  0
 10 11  1  0
 11 12  2  0
 12 13  1  0
 13 14  1  0
 14 15  1  0
  9  3  1  0
 15 11  1  0
M  END
$$$$
