
     RDKit          3D

 36 39  0  0  0  0  0  0  0  0999 V2000
  -23.4316   35.2425  -22.5325 C   0  0  0  0  0  0  0  0  0  0  0  0
  -22.5092   36.4144  -22.2607 C   0  0  0  0  0  0  0  0  0  0  0  0
  -21.1878   36.2443  -22.9617 C   0  0  0  0  0  0  0  0  0  0  0  0
  -20.4746   37.5020  -22.8816 N   0  0  0  0  0  0  0  0  0  0  0  0
  -19.8461   37.8204  -21.7398 C   0  0  0  0  0  0  0  0  0  0  0  0
  -19.9049   37.0079  -20.7853 O   0  0  0  0  0  0  0  0  0  0  0  0
  -19.1648   39.0153  -21.6544 C   0  0  0  0  0  0  0  0  0  0  0  0
  -18.4558   39.6040  -20.6777 N   0  0  0  0  0  0  0  0  0  0  0  0
  -17.9797   40.7904  -21.0947 C   0  0  0  0  0  0  0  0  0  0  0  0
  -17.1639   41.7453  -20.3470 C   0  0  0  0  0  0  0  0  0  0  0  0
  -16.7027   42.8725  -20.9602 C   0  0  0  0  0  0  0  0  0  0  0  0
  -15.9229   43.7884  -20.2516 C   0  0  0  0  0  0  0  0  0  0  0  0
  -15.6085   43.5601  -18.9114 C   0  0  0  0  0  0  0  0  0  0  0  0
  -14.8330   44.4757  -18.2147 O   0  0  0  0  0  0  0  0  0  0  0  0
  -13.4237   44.3605  -18.2739 C   0  0  0  0  0  0  0  0  0  0  0  0
  -12.9267   44.2148  -16.8838 C   0  0  0  0  0  0  0  0  0  0  0  0
  -12.9617   45.1826  -16.0497 O   0  0  0  0  0  0  0  0  0  0  0  0
  -12.3789   43.0002  -16.3774 N   0  0  0  0  0  0  0  0  0  0  0  0
  -11.4858   42.9852  -15.2817 C   0  0  0  0  0  0  0  0  0  0  0  0
  -11.2345   44.1222  -14.5562 C   0  0  0  0  0  0  0  0  0  0  0  0
  -10.3616   44.1341  -13.4756 C   0  0  0  0  0  0  0  0  0  0  0  0
   -9.7307   42.9352  -13.1359 C   0  0  0  0  0  0  0  0  0  0  0  0
   -8.8248   42.9389  -12.0176 C   0  0  0  0  0  0  0  0  0  0  0  0
   -8.0977   42.9271  -11.0979 N   0  0  0  0  0  0  0  0  0  0  0  0
   -9.9634   41.7813  -13.8447 C   0  0  0  0  0  0  0  0  0  0  0  0
  -10.8503   41.8173  -14.9251 C   0  0  0  0  0  0  0  0  0  0  0  0
  -16.0806   42.4218  -18.3110 C   0  0  0  0  0  0  0  0  0  0  0  0
  -16.8577   41.5123  -19.0234 C   0  0  0  0  0  0  0  0  0  0  0  0
  -18.4203   40.9206  -22.3742 N   0  0  0  0  0  0  0  0  0  0  0  0
  -19.1470   39.8537  -22.7469 C   0  0  0  0  0  0  0  0  0  0  0  0
  -19.7831   39.5316  -23.9027 N   0  0  0  0  0  0  0  0  0  0  0  0
  -19.7640   40.4142  -25.0517 C   0  0  0  0  0  0  0  0  0  0  0  0
  -20.6146   41.6499  -24.8410 C   0  0  0  0  0  0  0  0  0  0  0  0
  -20.4147   42.5152  -26.0875 C   0  0  0  0  0  0  0  0  0  0  0  0
  -20.4353   38.3578  -23.9438 C   0  0  0  0  0  0  0  0  0  0  0  0
  -21.0375   38.0350  -25.0136 O   0  0  0  0  0  0  0  0  0  0  0  0
  1  2  1  0
  2  3  1  0
  3  4  1  0
  4  5  1  0
  5  6  2  0
  5  7  1  0
  7  8  1  0
  8  9  1  0
  9 10  1  0
 10 11  2  0
 11 12  1  0
 12 13  2  0
 13 14  1  0
 14 15  1  0
 15 16  1  0
 16 17  2  0
 16 18  1  0
 18 19  1  0
 19 20  2  0
 20 21  1  0
 21 22  2  0
 22 23  1  0
 23 24  3  0
 22 25  1  0
 25 26  2  0
 13 27  1  0
 27 28  2  0
  9 29  2  0
 29 30  1  0
 30 31  1  0
 31 32  1  0
 32 33  1  0
 33 34  1  0
 31 35  1  0
 35 36  2  0
 35  4  1  0
 30  7  2  0
 28 10  1  0
 26 19  1  0
M  END
$$$$
