
     RDKit          3D

 21 23  0  0  0  0  0  0  0  0999 V2000
  -19.4968   41.4626  -17.4542 N   0  0  0  0  0  0  0  0  0  0  0  0
  -18.8559   41.8044  -18.4087 C   0  0  0  0  0  0  0  0  0  0  0  0
  -18.0312   42.2189  -19.6458 C   0  0  0  0  0  0  0  0  0  0  0  0
  -17.9266   41.3413  -20.6103 C   0  0  0  0  0  0  0  0  0  0  0  0
  -18.5746   40.0959  -20.8126 N   0  0  0  0  0  0  0  0  0  0  0  0
  -18.3111   39.2267  -21.8941 C   0  0  0  0  0  0  0  0  0  0  0  0
  -17.4003   39.4983  -22.6615 O   0  0  0  0  0  0  0  0  0  0  0  0
  -19.1728   38.0224  -22.0049 C   0  0  0  0  0  0  0  0  0  0  0  0
  -20.4982   38.0997  -21.4690 C   0  0  0  0  0  0  0  0  0  0  0  0
  -21.2554   36.9473  -21.4524 C   0  0  0  0  0  0  0  0  0  0  0  0
  -20.6414   35.7641  -21.9793 C   0  0  0  0  0  0  0  0  0  0  0  0
  -19.4703   35.6547  -22.4544 C   0  0  0  0  0  0  0  0  0  0  0  0
  -18.6890   36.8685  -22.4709 C   0  0  0  0  0  0  0  0  0  0  0  0
  -17.5196   36.7265  -23.0987 F   0  0  0  0  0  0  0  0  0  0  0  0
  -16.7285   42.0774  -21.7408 S   0  0  0  0  0  0  0  0  0  0  0  0
  -16.5186   43.5917  -20.6799 C   0  0  0  0  0  0  0  0  0  0  0  0
  -17.3588   43.3699  -19.6156 C   0  0  0  0  0  0  0  0  0  0  0  0
  -17.4040   44.4157  -18.5247 C   0  0  0  0  0  0  0  0  0  0  0  0
  -16.1298   45.1800  -18.5771 C   0  0  0  0  0  0  0  0  0  0  0  0
  -15.9911   45.8485  -19.9150 C   0  0  0  0  0  0  0  0  0  0  0  0
  -15.6988   44.7850  -20.9305 C   0  0  0  0  0  0  0  0  0  0  0  0
  1  2  3  0
  2  3  1  0
  3  4  2  0
  4  5  1  0
  5  6  1  0
  6  7  2  0
  6  8  1  0
  8  9  2  0
  9 10  1  0
 10 11  2  0
 11 12  1  0
 12 13  2  0
 13 14  1  0
  4 15  1  0
 15 16  1  0
 16 17  2  0
 17 18  1  0
 18 19  1  0
 19 20  1  0
 20 21  1  0
 17  3  1  0
 13  8  1  0
 21 16  1  0
M  END
$$$$
