
     RDKit          3D

 32 36  0  0  0  0  0  0  0  0999 V2000
  -25.9184   18.7650  -26.1238 N   0  0  0  0  0  0  0  0  0  0  0  0
  -26.0538   17.9620  -24.9521 C   0  0  0  0  0  0  0  0  0  0  0  0
  -25.7515   16.6234  -25.0209 C   0  0  0  0  0  0  0  0  0  0  0  0
  -25.8796   15.8586  -23.9068 C   0  0  0  0  0  0  0  0  0  0  0  0
  -26.3081   16.3919  -22.6991 C   0  0  0  0  0  0  0  0  0  0  0  0
  -26.4023   15.4782  -21.5789 C   0  0  0  0  0  0  0  0  0  0  0  0
  -25.8550   15.8010  -20.3692 C   0  0  0  0  0  0  0  0  0  0  0  0
  -25.9531   14.9171  -19.3217 C   0  0  0  0  0  0  0  0  0  0  0  0
  -26.6109   13.6979  -19.5056 C   0  0  0  0  0  0  0  0  0  0  0  0
  -26.6891   12.8608  -18.4598 N   0  0  0  0  0  0  0  0  0  0  0  0
  -27.3112   11.6951  -18.6068 C   0  0  0  0  0  0  0  0  0  0  0  0
  -27.8820   11.3103  -19.7992 C   0  0  0  0  0  0  0  0  0  0  0  0
  -28.5069   10.0936  -19.8913 C   0  0  0  0  0  0  0  0  0  0  0  0
  -29.0619    9.7317  -21.0873 C   0  0  0  0  0  0  0  0  0  0  0  0
  -28.9754   10.5859  -22.1376 C   0  0  0  0  0  0  0  0  0  0  0  0
  -29.4900   10.2350  -23.2247 O   0  0  0  0  0  0  0  0  0  0  0  0
  -28.3473   11.8225  -22.0657 N   0  0  0  0  0  0  0  0  0  0  0  0
  -28.3842   12.4931  -23.2739 C   0  0  0  0  0  0  0  0  0  0  0  0
  -29.3575   13.4340  -23.6585 C   0  0  0  0  0  0  0  0  0  0  0  0
  -29.2183   14.1441  -24.8134 C   0  0  0  0  0  0  0  0  0  0  0  0
  -28.1205   13.9555  -25.6298 C   0  0  0  0  0  0  0  0  0  0  0  0
  -27.1404   13.0431  -25.2930 C   0  0  0  0  0  0  0  0  0  0  0  0
  -25.9515   12.8396  -26.1780 C   0  0  0  0  0  0  0  0  0  0  0  0
  -24.8117   13.0431  -25.4473 F   0  0  0  0  0  0  0  0  0  0  0  0
  -26.0131   11.5264  -26.6080 F   0  0  0  0  0  0  0  0  0  0  0  0
  -26.0560   13.7163  -27.2575 F   0  0  0  0  0  0  0  0  0  0  0  0
  -27.2794   12.3317  -24.1368 C   0  0  0  0  0  0  0  0  0  0  0  0
  -27.8202   12.1577  -20.9137 C   0  0  0  0  0  0  0  0  0  0  0  0
  -27.1710   13.3716  -20.7516 C   0  0  0  0  0  0  0  0  0  0  0  0
  -27.0601   14.2711  -21.7794 C   0  0  0  0  0  0  0  0  0  0  0  0
  -26.5973   17.7161  -22.6684 C   0  0  0  0  0  0  0  0  0  0  0  0
  -26.4662   18.4623  -23.7789 N   0  0  0  0  0  0  0  0  0  0  0  0
  1  2  1  0
  2  3  2  0
  3  4  1  0
  4  5  2  0
  5  6  1  0
  6  7  2  0
  7  8  1  0
  8  9  2  0
  9 10  1  0
 10 11  2  0
 11 12  1  0
 12 13  1  0
 13 14  2  0
 14 15  1  0
 15 16  2  0
 15 17  1  0
 17 18  1  0
 18 19  2  0
 19 20  1  0
 20 21  2  0
 21 22  1  0
 22 23  1  0
 23 24  1  0
 23 25  1  0
 23 26  1  0
 22 27  2  0
 17 28  1  0
 28 29  1  0
 29 30  2  0
  5 31  1  0
 31 32  2  0
 32  2  1  0
 30  6  1  0
 29  9  1  0
 28 12  2  0
 27 18  1  0
M  END
$$$$
