
     RDKit          3D

 17 18  0  0  0  0  0  0  0  0999 V2000
  -17.5682   36.7243  -22.2328 O   0  0  0  0  0  0  0  0  0  0  0  0
  -18.1900   37.7379  -21.8860 N   0  0  0  0  0  4  0  0  0  0  0  0
  -19.3703   38.0331  -22.5155 O   0  0  0  0  0  1  0  0  0  0  0  0
  -17.7576   38.6052  -20.8841 N   0  0  0  0  0  0  0  0  0  0  0  0
  -18.5763   39.4414  -20.2904 C   0  0  0  0  0  0  0  0  0  0  0  0
  -19.7656   39.0530  -19.6617 N   0  0  0  0  0  0  0  0  0  0  0  0
  -20.1276   40.0784  -18.7012 C   0  0  0  0  0  0  0  0  0  0  0  0
  -19.4663   41.3106  -19.3001 C   0  0  0  0  0  0  0  0  0  0  0  0
  -18.4327   40.8483  -20.1682 N   0  0  0  0  0  0  0  0  0  0  0  0
  -17.4254   41.6118  -20.8134 C   0  0  0  0  0  0  0  0  0  0  0  0
  -17.8195   42.9818  -21.1758 C   0  0  0  0  0  0  0  0  0  0  0  0
  -17.5298   44.0998  -20.4510 C   0  0  0  0  0  0  0  0  0  0  0  0
  -17.9671   45.3154  -20.9191 C   0  0  0  0  0  0  0  0  0  0  0  0
  -18.6872   45.4562  -22.0909 C   0  0  0  0  0  0  0  0  0  0  0  0
  -19.2288   47.0294  -22.6561 Cl  0  0  0  0  0  0  0  0  0  0  0  0
  -18.9578   44.3356  -22.7844 N   0  0  0  0  0  0  0  0  0  0  0  0
  -18.5399   43.1370  -22.3451 C   0  0  0  0  0  0  0  0  0  0  0  0
  1  2  2  0
  2  3  1  0
  2  4  1  0
  4  5  2  0
  5  6  1  0
  6  7  1  0
  7  8  1  0
  8  9  1  0
  9 10  1  0
 10 11  1  0
 11 12  2  0
 12 13  1  0
 13 14  2  0
 14 15  1  0
 14 16  1  0
 16 17  2  0
  9  5  1  0
 17 11  1  0
M  CHG  2   2   1   3  -1
M  END
$$$$
