
     RDKit          3D

 43 44  0  0  0  0  0  0  0  0999 V2000
  -22.2956   22.8221  -26.1790 N   0  0  0  0  0  0  0  0  0  0  0  0
  -22.2757   21.5429  -26.2945 C   0  0  0  0  0  0  0  0  0  0  0  0
  -22.4965   20.6918  -25.1589 N   0  0  0  0  0  0  0  0  0  0  0  0
  -22.0301   20.9836  -27.5738 N   0  0  0  0  0  0  0  0  0  0  0  0
  -21.9104   21.7787  -28.7581 C   0  0  0  0  0  0  0  0  0  0  0  0
  -21.7754   20.8986  -29.9840 C   0  0  0  0  0  0  0  0  0  0  0  0
  -21.6611   21.7285  -31.2174 C   0  0  0  0  0  0  0  0  0  0  0  0
  -21.5123   20.8055  -32.4402 C   0  0  2  0  0  0  0  0  0  0  0  0
  -20.1840   20.2388  -32.4488 N   0  0  0  0  0  0  0  0  0  0  0  0
  -19.8411   18.8940  -32.6776 C   0  0  0  0  0  0  0  0  0  0  0  0
  -18.7693   18.4337  -32.2111 O   0  0  0  0  0  0  0  0  0  0  0  0
  -20.6676   17.9087  -33.4594 C   0  0  2  0  0  0  0  0  0  0  0  0
  -21.3832   17.0782  -32.3865 C   0  0  0  0  0  0  0  0  0  0  0  0
  -20.4720   16.5739  -31.3207 C   0  0  0  0  0  0  0  0  0  0  0  0
  -19.3432   15.7488  -31.9560 C   0  0  0  0  0  0  0  0  0  0  0  0
  -18.4236   15.2994  -30.8387 C   0  0  0  0  0  0  0  0  0  0  0  0
  -17.3780   14.4521  -31.3279 N   0  0  0  0  0  0  0  0  0  0  0  0
  -19.7162   17.0933  -34.1859 N   0  0  0  0  0  0  0  0  0  0  0  0
  -19.4441   17.0721  -35.5569 C   0  0  0  0  0  0  0  0  0  0  0  0
  -18.2751   17.4913  -35.8991 O   0  0  0  0  0  0  0  0  0  0  0  0
  -20.2723   16.6453  -36.6907 C   0  0  1  0  0  0  0  0  0  0  0  0
  -21.6938   16.2992  -36.3720 C   0  0  0  0  0  0  0  0  0  0  0  0
  -22.5576   17.2277  -37.1546 C   0  0  0  0  0  0  0  0  0  0  0  0
  -22.6059   17.1133  -38.5324 C   0  0  0  0  0  0  0  0  0  0  0  0
  -23.3930   17.9458  -39.3029 C   0  0  0  0  0  0  0  0  0  0  0  0
  -24.1656   18.9285  -38.7277 C   0  0  0  0  0  0  0  0  0  0  0  0
  -24.1344   19.0619  -37.3592 C   0  0  0  0  0  0  0  0  0  0  0  0
  -23.3380   18.2167  -36.6013 C   0  0  0  0  0  0  0  0  0  0  0  0
  -20.2386   17.5307  -37.8121 N   0  0  0  0  0  0  0  0  0  0  0  0
  -19.7780   18.8630  -37.8545 C   0  0  0  0  0  0  0  0  0  0  0  0
  -18.9314   19.2049  -38.7516 O   0  0  0  0  0  0  0  0  0  0  0  0
  -20.1926   19.9492  -36.9294 C   0  0  2  0  0  0  0  0  0  0  0  0
  -21.6896   20.2383  -37.1175 C   0  0  0  0  0  0  0  0  0  0  0  0
  -21.8881   21.5163  -37.8231 C   0  0  0  0  0  0  0  0  0  0  0  0
  -20.9131   22.2415  -38.1026 O   0  0  0  0  0  0  0  0  0  0  0  0
  -23.1578   21.9146  -38.1776 O   0  0  0  0  0  0  0  0  0  0  0  0
  -19.5090   21.1783  -37.2008 N   0  0  0  0  0  0  0  0  0  0  0  0
  -19.5457   22.2322  -36.2685 C   0  0  0  0  0  0  0  0  0  0  0  0
  -19.5163   23.4465  -36.6508 O   0  0  0  0  0  0  0  0  0  0  0  0
  -19.6203   22.0288  -34.7927 C   0  0  0  0  0  0  0  0  0  0  0  0
  -20.8947   22.4604  -34.2680 N   0  0  0  0  0  0  0  0  0  0  0  0
  -21.8299   21.6455  -33.6064 C   0  0  0  0  0  0  0  0  0  0  0  0
  -23.0385   21.6276  -34.0388 O   0  0  0  0  0  0  0  0  0  0  0  0
  1  2  2  0
  2  3  1  0
  2  4  1  0
  4  5  1  0
  5  6  1  0
  6  7  1  0
  8  7  1  1
  8  9  1  0
  9 10  1  0
 10 11  2  0
 10 12  1  0
 12 13  1  1
 13 14  1  0
 14 15  1  0
 15 16  1  0
 16 17  1  0
 12 18  1  0
 18 19  1  0
 19 20  2  0
 19 21  1  0
 21 22  1  1
 22 23  1  0
 23 24  2  0
 24 25  1  0
 25 26  2  0
 26 27  1  0
 27 28  2  0
 21 29  1  0
 29 30  1  0
 30 31  2  0
 30 32  1  0
 32 33  1  6
 33 34  1  0
 34 35  2  0
 34 36  1  0
 32 37  1  0
 37 38  1  0
 38 39  2  0
 38 40  1  0
 40 41  1  0
 41 42  1  0
 42 43  2  0
 42  8  1  0
 28 23  1  0
M  END
$$$$
