
     RDKit          3D

 21 22  0  0  0  0  0  0  0  0999 V2000
  -22.0556   35.4529  -22.5153 C   0  0  0  0  0  0  0  0  0  0  0  0
  -20.9382   36.0527  -21.7598 C   0  0  0  0  0  0  0  0  0  0  0  0
  -20.9811   37.3899  -21.1979 C   0  0  0  0  0  0  0  0  0  0  0  0
  -20.1376   38.3152  -21.5711 C   0  0  0  0  0  0  0  0  0  0  0  0
  -18.3764   38.4273  -21.1692 S   0  0  0  0  0  0  0  0  0  0  0  0
  -17.9862   39.6443  -22.4144 C   0  0  0  0  0  0  0  0  0  0  0  0
  -16.4768   39.9974  -22.8991 S   0  0  0  0  0  0  0  0  0  0  0  0
  -19.2279   40.1695  -22.8225 N   0  0  0  0  0  0  0  0  0  0  0  0
  -19.2535   41.3821  -23.6660 C   0  0  0  0  0  0  0  0  0  0  0  0
  -19.5724   42.5698  -22.8628 C   0  0  0  0  0  0  0  0  0  0  0  0
  -19.6862   42.4225  -21.6073 O   0  0  0  0  0  0  0  0  0  0  0  0
  -19.7537   43.8326  -23.4026 O   0  0  0  0  0  0  0  0  0  0  0  0
  -20.3601   39.4958  -22.3964 C   0  0  0  0  0  0  0  0  0  0  0  0
  -21.5594   39.8496  -22.6832 O   0  0  0  0  0  0  0  0  0  0  0  0
  -19.8255   35.3515  -21.5657 C   0  0  0  0  0  0  0  0  0  0  0  0
  -19.7004   33.9142  -21.7482 C   0  0  0  0  0  0  0  0  0  0  0  0
  -18.4903   33.3953  -22.2021 C   0  0  0  0  0  0  0  0  0  0  0  0
  -18.3021   32.0508  -22.4354 C   0  0  0  0  0  0  0  0  0  0  0  0
  -19.3171   31.1520  -22.2265 C   0  0  0  0  0  0  0  0  0  0  0  0
  -20.5254   31.6427  -21.7774 C   0  0  0  0  0  0  0  0  0  0  0  0
  -20.7064   33.0035  -21.5445 C   0  0  0  0  0  0  0  0  0  0  0  0
  1  2  1  0
  2  3  1  0
  3  4  2  0
  4  5  1  0
  5  6  1  0
  6  7  2  0
  6  8  1  0
  8  9  1  0
  9 10  1  0
 10 11  2  0
 10 12  1  0
  8 13  1  0
 13 14  2  0
  2 15  2  0
 15 16  1  0
 16 17  2  0
 17 18  1  0
 18 19  2  0
 19 20  1  0
 20 21  2  0
 13  4  1  0
 21 16  1  0
M  END
$$$$
