
     RDKit          3D

 30 33  0  0  0  0  0  0  0  0999 V2000
  -32.1622    7.8779  -17.0083 C   0  0  0  0  0  0  0  0  0  0  0  0
  -32.2282    9.3474  -17.2659 C   0  0  0  0  0  0  0  0  0  0  0  0
  -31.1153    9.8032  -18.0124 O   0  0  0  0  0  0  0  0  0  0  0  0
  -31.0154   11.1449  -18.3815 C   0  0  0  0  0  0  0  0  0  0  0  0
  -31.2255   11.9780  -17.4783 O   0  0  0  0  0  0  0  0  0  0  0  0
  -30.6995   11.5603  -19.6819 N   0  0  0  0  0  0  0  0  0  0  0  0
  -30.3622   12.8611  -20.1058 C   0  0  0  0  0  0  0  0  0  0  0  0
  -31.0070   13.9946  -19.6569 C   0  0  0  0  0  0  0  0  0  0  0  0
  -30.6759   15.2817  -20.0974 C   0  0  0  0  0  0  0  0  0  0  0  0
  -29.6730   15.4270  -21.0114 C   0  0  0  0  0  0  0  0  0  0  0  0
  -29.0317   14.2600  -21.4548 C   0  0  0  0  0  0  0  0  0  0  0  0
  -29.3332   13.0155  -21.0417 C   0  0  0  0  0  0  0  0  0  0  0  0
  -27.9959   14.2056  -22.4401 N   0  0  0  0  0  0  0  0  0  0  0  0
  -28.1203   13.2890  -23.4770 C   0  0  0  0  0  0  0  0  0  0  0  0
  -27.3321   13.4418  -24.4908 O   0  0  0  0  0  0  0  0  0  0  0  0
  -29.0580   12.1479  -23.5991 C   0  0  0  0  0  0  0  0  0  0  0  0
  -28.4699   11.1289  -24.4794 N   0  0  0  0  0  0  0  0  0  0  0  0
  -28.0182    9.9681  -23.7936 C   0  0  0  0  0  0  0  0  0  0  0  0
  -28.3915    8.7417  -24.6306 C   0  0  0  0  0  0  0  0  0  0  0  0
  -27.7239    8.8992  -25.9817 C   0  0  0  0  0  0  0  0  0  0  0  0
  -28.3246   10.1204  -26.6401 C   0  0  0  0  0  0  0  0  0  0  0  0
  -29.2178   10.9044  -25.6709 C   0  0  0  0  0  0  0  0  0  0  0  0
  -26.9112   15.1498  -22.4198 C   0  0  0  0  0  0  0  0  0  0  0  0
  -25.7928   14.5754  -22.9365 C   0  0  0  0  0  0  0  0  0  0  0  0
  -24.6435   15.3364  -23.0511 C   0  0  0  0  0  0  0  0  0  0  0  0
  -24.6858   16.6561  -22.6287 C   0  0  0  0  0  0  0  0  0  0  0  0
  -25.7888   17.2533  -22.1056 C   0  0  0  0  0  0  0  0  0  0  0  0
  -26.9656   16.4812  -21.9860 C   0  0  0  0  0  0  0  0  0  0  0  0
  -28.0174   17.2733  -21.3409 C   0  0  0  0  0  0  0  0  0  0  0  0
  -29.4132   16.8136  -21.4007 C   0  0  0  0  0  0  0  0  0  0  0  0
  1  2  1  0
  2  3  1  0
  3  4  1  0
  4  5  2  0
  4  6  1  0
  6  7  1  0
  7  8  2  0
  8  9  1  0
  9 10  2  0
 10 11  1  0
 11 12  2  0
 11 13  1  0
 13 14  1  0
 14 15  2  0
 14 16  1  0
 16 17  1  0
 17 18  1  0
 18 19  1  0
 19 20  1  0
 20 21  1  0
 21 22  1  0
 13 23  1  0
 23 24  2  0
 24 25  1  0
 25 26  2  0
 26 27  1  0
 27 28  2  0
 28 29  1  0
 29 30  1  0
 12  7  1  0
 22 17  1  0
 28 23  1  0
 30 10  1  0
M  END
$$$$
