
     RDKit          3D

 20 22  0  0  0  0  0  0  0  0999 V2000
  -23.2965   15.9449  -31.7010 C   0  0  0  0  0  0  0  0  0  0  0  0
  -22.1591   16.9029  -31.5383 C   0  0  0  0  0  0  0  0  0  0  0  0
  -22.3457   18.2666  -31.6069 C   0  0  0  0  0  0  0  0  0  0  0  0
  -21.2642   19.1090  -31.4504 C   0  0  0  0  0  0  0  0  0  0  0  0
  -21.4039   20.3683  -31.5083 O   0  0  0  0  0  0  0  0  0  0  0  0
  -20.0730   18.6053  -31.2386 O   0  0  0  0  0  0  0  0  0  0  0  0
  -19.8686   17.3137  -31.1691 C   0  0  0  0  0  0  0  0  0  0  0  0
  -18.5927   16.8306  -30.9438 C   0  0  0  0  0  0  0  0  0  0  0  0
  -18.3359   15.4792  -30.8639 C   0  0  0  0  0  0  0  0  0  0  0  0
  -17.0395   14.9996  -30.6353 O   0  0  0  0  0  0  0  0  0  0  0  0
  -16.4640   14.9313  -29.3686 C   0  0  0  0  0  0  0  0  0  0  0  0
  -15.3204   13.9601  -29.4568 C   0  0  0  0  0  0  0  0  0  0  0  0
  -14.0441   14.3926  -29.7784 C   0  0  0  0  0  0  0  0  0  0  0  0
  -12.9828   13.5143  -29.8635 C   0  0  0  0  0  0  0  0  0  0  0  0
  -13.1546   12.1762  -29.6318 C   0  0  0  0  0  0  0  0  0  0  0  0
  -14.4234   11.7410  -29.3113 C   0  0  0  0  0  0  0  0  0  0  0  0
  -15.4941   12.6158  -29.2237 C   0  0  0  0  0  0  0  0  0  0  0  0
  -19.3880   14.5962  -31.0144 C   0  0  0  0  0  0  0  0  0  0  0  0
  -20.6704   15.0480  -31.2399 C   0  0  0  0  0  0  0  0  0  0  0  0
  -20.8969   16.4097  -31.3150 C   0  0  0  0  0  0  0  0  0  0  0  0
  1  2  1  0
  2  3  2  0
  3  4  1  0
  4  5  2  0
  4  6  1  0
  6  7  1  0
  7  8  2  0
  8  9  1  0
  9 10  1  0
 10 11  1  0
 11 12  1  0
 12 13  2  0
 13 14  1  0
 14 15  2  0
 15 16  1  0
 16 17  2  0
  9 18  2  0
 18 19  1  0
 19 20  2  0
 20  2  1  0
 20  7  1  0
 17 12  1  0
M  END
$$$$
