
     RDKit          3D

 29 29  0  0  0  0  0  0  0  0999 V2000
    2.4590   21.5358  -20.3061 Cl  0  0  0  0  0  0  0  0  0  0  0  0
    2.4586   21.5373  -20.3065 Cl  0  0  0  0  0  0  0  0  0  0  0  0
    2.4600   21.5323  -20.3050 Cl  0  0  0  0  0  0  0  0  0  0  0  0
    1.9901   17.2074  -22.9315 N   0  0  0  0  0  0  0  0  0  0  0  0
    1.1928   18.3908  -23.1559 C   0  0  0  0  0  0  0  0  0  0  0  0
    1.6889   19.4757  -22.2315 C   0  0  0  0  0  0  0  0  0  0  0  0
    3.1337   19.8433  -22.4469 C   0  0  0  0  0  0  0  0  0  0  0  0
    3.5111   20.9110  -21.4918 C   0  0  0  0  0  0  0  0  0  0  0  0
    3.5518   20.7873  -20.1423 N   0  0  0  0  0  0  0  0  0  0  0  0
    3.7371   22.0872  -19.5270 C   0  0  0  0  0  0  0  0  0  0  0  0
    2.8370   23.1423  -20.1390 C   0  0  0  0  0  0  0  0  0  0  0  0
    1.5615   23.3976  -19.8096 N   0  0  0  0  0  0  0  0  0  0  0  0
    1.0729   24.4093  -20.5257 C   0  0  0  0  0  0  0  0  0  0  0  0
   -0.1472   25.0458  -20.5730 C   0  0  0  0  0  0  0  0  0  0  0  0
   -0.3693   26.1069  -21.4535 C   0  0  0  0  0  0  0  0  0  0  0  0
    0.6452   26.5021  -22.2671 C   0  0  0  0  0  0  0  0  0  0  0  0
    1.8685   25.8548  -22.2110 C   0  0  0  0  0  0  0  0  0  0  0  0
    2.1097   24.8074  -21.3516 C   0  0  0  0  0  0  0  0  0  0  0  0
    3.1776   24.0292  -21.1071 N   0  0  0  0  0  0  0  0  0  0  0  0
    3.2379   19.7976  -19.2713 C   0  0  1  0  0  0  0  0  0  0  0  0
    3.6494   18.3593  -19.5613 C   0  0  0  0  0  0  0  0  0  0  0  0
    3.0090   17.4444  -18.5167 C   0  0  0  0  0  0  0  0  0  0  0  0
    2.4725   18.1959  -17.3143 C   0  0  0  0  0  0  0  0  0  0  0  0
    3.5529   19.1500  -16.9529 C   0  0  0  0  0  0  0  0  0  0  0  0
    4.1446   19.1990  -15.7139 C   0  0  0  0  0  0  0  0  0  0  0  0
    5.1702   20.1148  -15.5520 C   0  0  0  0  0  0  0  0  0  0  0  0
    5.5724   20.9324  -16.5842 C   0  0  0  0  0  0  0  0  0  0  0  0
    4.9773   20.8715  -17.7997 N   0  0  0  0  0  0  0  0  0  0  0  0
    3.9981   19.9933  -17.9424 C   0  0  0  0  0  0  0  0  0  0  0  0
  4  5  1  0
  5  6  1  0
  6  7  1  0
  7  8  1  0
  8  9  1  0
  9 10  1  0
 10 11  1  0
 11 12  2  0
 12 13  1  0
 13 14  2  0
 14 15  1  0
 15 16  2  0
 16 17  1  0
 17 18  2  0
 18 19  1  0
 20  9  1  6
 20 21  1  0
 21 22  1  0
 22 23  1  0
 23 24  1  0
 24 25  2  0
 25 26  1  0
 26 27  2  0
 27 28  1  0
 28 29  2  0
 19 11  1  0
 29 20  1  0
 18 13  1  0
 29 24  1  0
M  END
$$$$
