
     RDKit          3D

 21 24  0  0  0  0  0  0  0  0999 V2000
  -30.2152   24.1062  -37.7944 C   0  0  0  0  0  0  0  0  0  0  0  0
  -29.2115   24.9302  -38.2564 C   0  0  0  0  0  0  0  0  0  0  0  0
  -28.5332   25.7766  -37.3644 C   0  0  0  0  0  0  0  0  0  0  0  0
  -28.8600   25.7928  -36.0278 C   0  0  0  0  0  0  0  0  0  0  0  0
  -28.1657   26.6544  -35.0830 C   0  0  0  0  0  0  0  0  0  0  0  0
  -28.7041   27.2233  -33.9920 N   0  0  0  0  0  0  0  0  0  0  0  0
  -27.8081   27.9444  -33.3537 N   0  0  0  0  0  0  0  0  0  0  0  0
  -26.6666   27.8399  -34.0457 C   0  0  0  0  0  0  0  0  0  0  0  0
  -26.8311   27.0313  -35.1577 C   0  0  0  0  0  0  0  0  0  0  0  0
  -25.8209   26.6764  -36.1498 C   0  0  0  0  0  0  0  0  0  0  0  0
  -25.2571   27.6084  -36.9788 C   0  0  0  0  0  0  0  0  0  0  0  0
  -24.3008   27.2596  -37.9233 C   0  0  0  0  0  0  0  0  0  0  0  0
  -23.9311   25.9703  -38.0117 N   0  0  0  0  0  0  0  0  0  0  0  0
  -24.4404   25.0035  -37.2323 C   0  0  0  0  0  0  0  0  0  0  0  0
  -24.0074   23.7029  -37.3859 C   0  0  0  0  0  0  0  0  0  0  0  0
  -24.5636   22.7237  -36.5537 C   0  0  0  0  0  0  0  0  0  0  0  0
  -25.5135   23.0525  -35.6117 C   0  0  0  0  0  0  0  0  0  0  0  0
  -25.9147   24.3789  -35.4984 C   0  0  0  0  0  0  0  0  0  0  0  0
  -25.3893   25.3667  -36.2998 C   0  0  0  0  0  0  0  0  0  0  0  0
  -29.8413   24.9832  -35.5935 N   0  0  0  0  0  0  0  0  0  0  0  0
  -30.5087   24.1560  -36.4493 C   0  0  0  0  0  0  0  0  0  0  0  0
  1  2  2  0
  2  3  1  0
  3  4  2  0
  4  5  1  0
  5  6  2  0
  6  7  1  0
  7  8  1  0
  8  9  2  0
  9 10  1  0
 10 11  2  0
 11 12  1  0
 12 13  2  0
 13 14  1  0
 14 15  2  0
 15 16  1  0
 16 17  2  0
 17 18  1  0
 18 19  2  0
  4 20  1  0
 20 21  2  0
 21  1  1  0
  9  5  1  0
 19 10  1  0
 19 14  1  0
M  END
$$$$
