
     RDKit          3D

 27 33  0  0  0  0  0  0  0  0999 V2000
  -19.0707   40.6749  -19.7512 C   0  0  0  0  0  0  0  0  0  0  0  0
  -18.9668   40.4918  -21.2211 C   0  0  2  0  0  0  0  0  0  0  0  0
  -17.6858   41.1418  -21.6893 C   0  0  0  0  0  0  0  0  0  0  0  0
  -17.7844   42.6041  -21.3866 C   0  0  0  0  0  0  0  0  0  0  0  0
  -19.0001   43.2926  -21.8438 C   0  0  1  0  0  0  0  0  0  0  0  0
  -20.2918   42.5700  -21.6680 C   0  0  2  0  0  0  0  0  0  0  0  0
  -20.0614   41.1352  -22.0290 C   0  0  2  0  0  0  0  0  0  0  0  0
  -21.2209   40.2450  -22.0600 C   0  0  2  0  0  0  0  0  0  0  0  0
  -21.5741   39.2227  -21.0771 C   0  0  0  0  0  0  0  0  0  0  0  0
  -20.5353   38.8457  -22.0681 C   0  0  2  0  0  0  0  0  0  0  0  0
  -19.1135   39.0679  -21.6711 C   0  0  1  0  0  0  0  0  0  0  0  0
  -18.2211   38.6944  -22.8287 C   0  0  0  0  0  0  0  0  0  0  0  0
  -18.2355   37.1755  -22.7442 C   0  0  0  0  0  0  0  0  0  0  0  0
  -18.2746   36.9666  -21.2822 C   0  0  0  0  0  0  0  0  0  0  0  0
  -17.9736   35.9186  -20.6676 O   0  0  0  0  0  0  0  0  0  0  0  0
  -18.7052   38.1337  -20.6757 O   0  0  0  0  0  0  0  0  0  0  0  0
  -21.2757   43.1456  -22.6594 C   0  0  1  0  0  0  0  0  0  0  0  0
  -22.4413   43.9323  -22.1931 C   0  0  0  0  0  0  0  0  0  0  0  0
  -21.1955   44.5993  -22.7335 C   0  0  1  0  0  0  0  0  0  0  0  0
  -20.3031   45.2858  -21.7791 C   0  0  0  0  0  0  0  0  0  0  0  0
  -20.4886   46.5655  -21.4854 C   0  0  0  0  0  0  0  0  0  0  0  0
  -19.5803   47.1942  -20.5392 C   0  0  0  0  0  0  0  0  0  0  0  0
  -19.9464   48.0949  -19.7686 O   0  0  0  0  0  0  0  0  0  0  0  0
  -18.1473   46.7554  -20.4746 C   0  0  0  0  0  0  0  0  0  0  0  0
  -17.9331   45.4674  -21.2107 C   0  0  0  0  0  0  0  0  0  0  0  0
  -19.1528   44.6188  -21.0855 C   0  0  2  0  0  0  0  0  0  0  0  0
  -19.5566   44.4103  -19.6581 C   0  0  0  0  0  0  0  0  0  0  0  0
  2  1  1  1
  2  3  1  0
  3  4  1  0
  5  4  1  1
  5  6  1  0
  6  7  1  0
  7  8  1  1
  8  9  1  1
 10  9  1  1
 10 11  1  0
 11 12  1  6
 12 13  1  0
 13 14  1  0
 14 15  2  0
 14 16  1  0
  6 17  1  6
 17 18  1  1
 19 18  1  1
 19 20  1  0
 20 21  2  0
 21 22  1  0
 22 23  2  0
 22 24  1  0
 24 25  1  0
 25 26  1  0
 26 27  1  1
  7  2  1  0
 10  8  1  0
 16 11  1  0
 19 17  1  0
 26 20  1  0
 11  2  1  0
 26  5  1  0
M  END
$$$$
