
     RDKit          3D

 35 39  0  0  0  0  0  0  0  0999 V2000
  -20.2344   38.6221  -24.1852 C   0  0  0  0  0  0  0  0  0  0  0  0
  -20.9521   38.3908  -22.8961 C   0  0  0  0  0  0  0  0  0  0  0  0
  -19.9802   38.1501  -21.7525 C   0  0  0  0  0  0  0  0  0  0  0  0
  -20.4685   38.7746  -20.4712 C   0  0  0  0  0  0  0  0  0  0  0  0
  -19.4443   38.9537  -19.4861 N   0  0  0  0  0  0  0  0  0  0  0  0
  -18.5886   40.0882  -19.4908 C   0  0  0  0  0  0  0  0  0  0  0  0
  -17.5529   40.2158  -18.6438 N   0  0  0  0  0  0  0  0  0  0  0  0
  -16.7279   41.2784  -18.6278 C   0  0  0  0  0  0  0  0  0  0  0  0
  -16.9403   42.3031  -19.5215 C   0  0  0  0  0  0  0  0  0  0  0  0
  -16.3042   43.4855  -19.7579 C   0  0  0  0  0  0  0  0  0  0  0  0
  -15.1368   44.0436  -19.0876 C   0  0  0  0  0  0  0  0  0  0  0  0
  -14.5668   43.3667  -18.0358 C   0  0  0  0  0  0  0  0  0  0  0  0
  -13.4591   43.8417  -17.3575 C   0  0  0  0  0  0  0  0  0  0  0  0
  -12.8756   45.0565  -17.7359 C   0  0  0  0  0  0  0  0  0  0  0  0
  -11.6806   45.5758  -17.0086 C   0  0  0  0  0  0  0  0  0  0  0  0
  -12.0933   46.3614  -15.8862 N   0  0  0  0  0  0  0  0  0  0  0  0
  -13.4583   46.7962  -15.9136 C   0  0  0  0  0  0  0  0  0  0  0  0
  -13.6263   47.9711  -14.9626 C   0  0  0  0  0  0  0  0  0  0  0  0
  -12.5297   47.9659  -14.0441 N   0  0  0  0  0  0  0  0  0  0  0  0
  -11.3241   48.5477  -14.5501 C   0  0  0  0  0  0  0  0  0  0  0  0
  -12.3047   46.6473  -13.5253 C   0  0  0  0  0  0  0  0  0  0  0  0
  -11.8288   45.7111  -14.6086 C   0  0  0  0  0  0  0  0  0  0  0  0
  -13.4400   45.7415  -18.7886 C   0  0  0  0  0  0  0  0  0  0  0  0
  -14.5581   45.2394  -19.4561 C   0  0  0  0  0  0  0  0  0  0  0  0
  -16.9925   44.0872  -20.7912 C   0  0  0  0  0  0  0  0  0  0  0  0
  -18.0071   43.2868  -21.1582 N   0  0  0  0  0  0  0  0  0  0  0  0
  -18.9725   43.5463  -22.2075 C   0  0  1  0  0  0  0  0  0  0  0  0
  -20.1609   44.3416  -21.7153 C   0  0  0  0  0  0  0  0  0  0  0  0
  -21.2553   44.1581  -22.7453 C   0  0  0  0  0  0  0  0  0  0  0  0
  -20.7661   44.6092  -24.0764 C   0  0  2  0  0  0  0  0  0  0  0  0
  -20.9681   43.6026  -25.0490 O   0  0  0  0  0  0  0  0  0  0  0  0
  -19.3756   45.1293  -24.1105 C   0  0  0  0  0  0  0  0  0  0  0  0
  -18.3738   44.2759  -23.3840 C   0  0  0  0  0  0  0  0  0  0  0  0
  -17.9818   42.1935  -20.3861 C   0  0  0  0  0  0  0  0  0  0  0  0
  -18.7866   41.1036  -20.3653 N   0  0  0  0  0  0  0  0  0  0  0  0
  1  2  1  0
  2  3  1  0
  3  4  1  0
  4  5  1  0
  5  6  1  0
  6  7  2  0
  7  8  1  0
  8  9  2  0
  9 10  1  0
 10 11  1  0
 11 12  2  0
 12 13  1  0
 13 14  2  0
 14 15  1  0
 15 16  1  0
 16 17  1  0
 17 18  1  0
 18 19  1  0
 19 20  1  0
 19 21  1  0
 21 22  1  0
 14 23  1  0
 23 24  2  0
 10 25  2  0
 25 26  1  0
 27 26  1  1
 27 28  1  0
 28 29  1  0
 29 30  1  0
 30 31  1  6
 30 32  1  0
 32 33  1  0
 26 34  1  0
 34 35  2  0
 35  6  1  0
 34  9  1  0
 24 11  1  0
 33 27  1  0
 22 16  1  0
M  END
$$$$
