
     RDKit          3D

 25 27  0  0  0  0  0  0  0  0999 V2000
  -19.0753   39.5289  -17.8356 C   0  0  0  0  0  0  0  0  0  0  0  0
  -19.3844   40.3064  -19.0380 N   0  0  0  0  0  0  0  0  0  0  0  0
  -20.0750   41.5294  -18.9247 C   0  0  0  0  0  0  0  0  0  0  0  0
  -20.2608   42.0898  -17.8280 O   0  0  0  0  0  0  0  0  0  0  0  0
  -20.6152   42.2025  -20.1425 C   0  0  0  0  0  0  0  0  0  0  0  0
  -19.9589   41.7575  -21.3049 O   0  0  0  0  0  0  0  0  0  0  0  0
  -19.2873   40.5768  -21.4621 C   0  0  0  0  0  0  0  0  0  0  0  0
  -18.9291   40.1644  -22.7272 C   0  0  0  0  0  0  0  0  0  0  0  0
  -19.2008   40.8805  -23.9594 C   0  0  0  0  0  0  0  0  0  0  0  0
  -18.7846   40.3308  -25.0423 O   0  0  0  0  0  0  0  0  0  0  0  0
  -19.8584   42.0939  -24.1196 N   0  0  0  0  0  0  0  0  0  0  0  0
  -20.0731   42.7217  -25.4290 C   0  0  0  0  0  0  0  0  0  0  0  0
  -21.5138   43.0085  -25.6962 C   0  0  0  0  0  0  0  0  0  0  0  0
  -21.6620   44.3045  -26.3507 N   0  0  0  0  0  0  0  0  0  0  0  0
  -21.4595   45.3099  -25.3202 C   0  0  0  0  0  0  0  0  0  0  0  0
  -20.1121   45.0546  -24.7041 C   0  0  0  0  0  0  0  0  0  0  0  0
  -19.3167   44.0348  -25.4738 C   0  0  0  0  0  0  0  0  0  0  0  0
  -19.2840   44.4520  -26.9440 C   0  0  0  0  0  0  0  0  0  0  0  0
  -20.7088   44.4628  -27.4267 C   0  0  0  0  0  0  0  0  0  0  0  0
  -18.2465   38.9417  -22.7634 C   0  0  0  0  0  0  0  0  0  0  0  0
  -17.9514   38.2058  -21.6514 C   0  0  0  0  0  0  0  0  0  0  0  0
  -17.0942   36.6792  -21.7392 Cl  0  0  0  0  0  0  0  0  0  0  0  0
  -18.3233   38.6482  -20.4141 C   0  0  0  0  0  0  0  0  0  0  0  0
  -18.9921   39.8351  -20.3183 C   0  0  0  0  0  0  0  0  0  0  0  0
  -19.8063   41.7049  -22.5477 Cl  0  0  0  0  0  0  0  0  0  0  0  0
  1  2  1  0
  2  3  1  0
  3  4  2  0
  3  5  1  0
  5  6  1  0
  6  7  1  0
  7  8  2  0
  8  9  1  0
  9 10  2  0
  9 11  1  0
 11 12  1  0
 12 13  1  0
 13 14  1  0
 14 15  1  0
 15 16  1  0
 16 17  1  0
 17 18  1  0
 18 19  1  0
  8 20  1  0
 20 21  2  0
 21 22  1  0
 21 23  1  0
 23 24  2  0
 24  2  1  0
 24  7  1  0
 17 12  1  0
 19 14  1  0
M  END
$$$$
