
     RDKit          3D

 28 30  0  0  0  0  0  0  0  0999 V2000
  -19.3947   13.3633  -30.2820 N   0  0  0  0  0  0  0  0  0  0  0  0
  -19.9336   14.4642  -31.0386 C   0  0  0  0  0  0  0  0  0  0  0  0
  -21.1092   14.4476  -31.4031 O   0  0  0  0  0  0  0  0  0  0  0  0
  -18.9945   15.5578  -31.3258 C   0  0  0  0  0  0  0  0  0  0  0  0
  -17.6622   15.3951  -31.0669 C   0  0  0  0  0  0  0  0  0  0  0  0
  -16.8611   16.4176  -31.3503 N   0  0  0  0  0  0  0  0  0  0  0  0
  -17.2897   17.5758  -31.8664 C   0  0  0  0  0  0  0  0  0  0  0  0
  -16.4107   18.6731  -32.0472 N   0  0  0  0  0  0  0  0  0  0  0  0
  -16.6434   19.8541  -31.2213 C   0  0  0  0  0  0  0  0  0  0  0  0
  -18.1164   20.1217  -31.0811 C   0  0  0  0  0  0  0  0  0  0  0  0
  -18.3589   21.4563  -30.5121 C   0  0  0  0  0  0  0  0  0  0  0  0
  -17.4157   22.0750  -29.6424 C   0  0  0  0  0  0  0  0  0  0  0  0
  -17.6725   23.3321  -29.1477 C   0  0  0  0  0  0  0  0  0  0  0  0
  -18.7889   24.0799  -29.4175 C   0  0  0  0  0  0  0  0  0  0  0  0
  -19.0472   25.3412  -28.9129 O   0  0  0  0  0  0  0  0  0  0  0  0
  -19.7256   23.4699  -30.2806 C   0  0  0  0  0  0  0  0  0  0  0  0
  -21.1543   24.3932  -30.6446 Cl  0  0  0  0  0  0  0  0  0  0  0  0
  -19.4607   22.2285  -30.7641 C   0  0  0  0  0  0  0  0  0  0  0  0
  -18.5997   17.7303  -32.1229 N   0  0  0  0  0  0  0  0  0  0  0  0
  -19.5184   16.7499  -31.8707 C   0  0  0  0  0  0  0  0  0  0  0  0
  -20.9107   16.8942  -31.9143 N   0  0  0  0  0  0  0  0  0  0  0  0
  -22.2486   17.0329  -31.9561 C   0  0  0  0  0  0  0  0  0  0  0  0
  -22.8879   16.8793  -33.3044 C   0  0  0  0  0  0  0  0  0  0  0  0
  -22.5369   17.8134  -34.2786 C   0  0  0  0  0  0  0  0  0  0  0  0
  -23.0907   17.7998  -35.5461 C   0  0  0  0  0  0  0  0  0  0  0  0
  -24.0089   16.8262  -35.8254 C   0  0  0  0  0  0  0  0  0  0  0  0
  -24.3609   15.8991  -34.8758 C   0  0  0  0  0  0  0  0  0  0  0  0
  -23.8055   15.9179  -33.6108 C   0  0  0  0  0  0  0  0  0  0  0  0
  1  2  1  0
  2  3  2  0
  2  4  1  0
  4  5  2  0
  5  6  1  0
  6  7  2  0
  7  8  1  0
  8  9  1  0
  9 10  1  0
 10 11  1  0
 11 12  2  0
 12 13  1  0
 13 14  2  0
 14 15  1  0
 14 16  1  0
 16 17  1  0
 16 18  2  0
  7 19  1  0
 19 20  2  0
 20 21  1  0
 21 22  1  0
 22 23  1  0
 23 24  2  0
 24 25  1  0
 25 26  2  0
 26 27  1  0
 27 28  2  0
 20  4  1  0
 28 23  1  0
 18 11  1  0
M  END
$$$$
