
     RDKit          3D

 18 19  0  0  0  0  0  0  0  0999 V2000
  -17.8918    0.5324  -35.1851 Cl  0  0  0  0  0  0  0  0  0  0  0  0
  -15.2863    1.5637  -34.0294 Cl  0  0  0  0  0  0  0  0  0  0  0  0
  -16.0482    1.4939  -35.6015 C   0  0  0  0  0  0  0  0  0  0  0  0
  -15.7895    2.4791  -36.5358 C   0  0  0  0  0  0  0  0  0  0  0  0
  -16.3726    2.4514  -37.7786 C   0  0  0  0  0  0  0  0  0  0  0  0
  -17.2252    1.4213  -38.0848 C   0  0  0  0  0  0  0  0  0  0  0  0
  -17.4799    0.4410  -37.1490 C   0  0  0  0  0  0  0  0  0  0  0  0
  -16.9026    0.4437  -35.8809 C   0  0  0  0  0  0  0  0  0  0  0  0
  -17.1874   -0.6192  -34.8883 C   0  0  0  0  0  0  0  0  0  0  0  0
  -18.0894   -0.1850  -33.8610 N   0  0  0  0  0  0  0  0  0  0  0  0
  -18.3144   -1.2818  -32.9310 C   0  0  0  0  0  0  0  0  0  0  0  0
  -19.3694   -0.9665  -31.9282 C   0  0  0  0  0  0  0  0  0  0  0  0
  -20.0602    0.3317  -32.1582 C   0  0  0  0  0  0  0  0  0  0  0  0
  -20.9214    1.3622  -31.1294 S   0  0  0  0  0  0  0  0  0  0  0  0
  -21.3382    2.6333  -32.3580 C   0  0  0  0  0  0  0  0  0  0  0  0
  -20.7417    2.1110  -33.4991 C   0  0  0  0  0  0  0  0  0  0  0  0
  -20.0999    0.9492  -33.3851 C   0  0  0  0  0  0  0  0  0  0  0  0
  -19.3684    0.1601  -34.4556 C   0  0  0  0  0  0  0  0  0  0  0  0
  2  3  1  0
  3  4  2  0
  4  5  1  0
  5  6  2  0
  6  7  1  0
  7  8  2  0
  8  9  1  0
  9 10  1  0
 10 11  1  0
 11 12  1  0
 12 13  1  0
 13 14  1  0
 14 15  1  0
 15 16  2  0
 16 17  1  0
 17 18  1  0
  8  3  1  0
 18 10  1  0
 17 13  2  0
M  END
$$$$
