
     RDKit          3D

 21 23  0  0  0  0  0  0  0  0999 V2000
  -25.8727   18.9322  -24.5671 N   0  0  0  0  0  0  0  0  0  0  0  0
  -26.5240   17.8015  -24.0091 C   0  0  0  0  0  0  0  0  0  0  0  0
  -27.8478   17.8052  -23.7096 N   0  0  0  0  0  0  0  0  0  0  0  0
  -28.1979   16.6376  -23.1556 C   0  0  0  0  0  0  0  0  0  0  0  0
  -29.5219   16.2379  -22.6915 C   0  0  0  0  0  0  0  0  0  0  0  0
  -29.8515   14.9073  -22.5348 C   0  0  0  0  0  0  0  0  0  0  0  0
  -31.0991   14.5070  -22.0967 C   0  0  0  0  0  0  0  0  0  0  0  0
  -32.0443   15.4592  -21.8068 C   0  0  0  0  0  0  0  0  0  0  0  0
  -31.7175   16.7523  -21.9613 N   0  0  0  0  0  0  0  0  0  0  0  0
  -30.5134   17.1543  -22.3847 C   0  0  0  0  0  0  0  0  0  0  0  0
  -27.0721   15.9172  -23.1197 N   0  0  0  0  0  0  0  0  0  0  0  0
  -26.0380   16.6116  -23.6383 N   0  0  0  0  0  0  0  0  0  0  0  0
  -24.7357   16.1132  -23.6647 C   0  0  0  0  0  0  0  0  0  0  0  0
  -23.8533   16.8500  -24.2755 O   0  0  0  0  0  0  0  0  0  0  0  0
  -24.2355   14.8855  -23.1052 C   0  0  0  0  0  0  0  0  0  0  0  0
  -24.7436   14.4834  -21.8632 C   0  0  0  0  0  0  0  0  0  0  0  0
  -24.3725   13.2977  -21.2787 C   0  0  0  0  0  0  0  0  0  0  0  0
  -23.4615   12.4841  -21.9583 C   0  0  0  0  0  0  0  0  0  0  0  0
  -22.9792   10.9791  -21.2322 Cl  0  0  0  0  0  0  0  0  0  0  0  0
  -22.9485   12.8462  -23.1699 C   0  0  0  0  0  0  0  0  0  0  0  0
  -23.3487   14.0572  -23.7340 C   0  0  0  0  0  0  0  0  0  0  0  0
  1  2  1  0
  2  3  2  0
  3  4  1  0
  4  5  1  0
  5  6  2  0
  6  7  1  0
  7  8  2  0
  8  9  1  0
  9 10  2  0
  4 11  2  0
 11 12  1  0
 12 13  1  0
 13 14  2  0
 13 15  1  0
 15 16  2  0
 16 17  1  0
 17 18  2  0
 18 19  1  0
 18 20  1  0
 20 21  2  0
 12  2  1  0
 21 15  1  0
 10  5  1  0
M  END
$$$$
