
     RDKit          3D

 21 23  0  0  0  0  0  0  0  0999 V2000
  -19.1512   35.4769  -24.2285 C   0  0  0  0  0  0  0  0  0  0  0  0
  -18.9485   34.9443  -22.8291 C   0  0  0  0  0  0  0  0  0  0  0  0
  -18.5866   33.4690  -22.9483 C   0  0  0  0  0  0  0  0  0  0  0  0
  -17.8542   35.6718  -22.0805 C   0  0  0  0  0  0  0  0  0  0  0  0
  -18.3717   36.8690  -21.3992 C   0  0  0  0  0  0  0  0  0  0  0  0
  -17.7291   37.5127  -20.5517 O   0  0  0  0  0  0  0  0  0  0  0  0
  -19.7321   37.3595  -21.7204 C   0  0  0  0  0  0  0  0  0  0  0  0
  -20.6450   36.4834  -22.0538 C   0  0  0  0  0  0  0  0  0  0  0  0
  -20.2463   35.0291  -22.0941 C   0  0  0  0  0  0  0  0  0  0  0  0
  -22.0253   36.7845  -22.3199 N   0  0  0  0  0  0  0  0  0  0  0  0
  -22.3582   38.1578  -22.1843 C   0  0  0  0  0  0  0  0  0  0  0  0
  -23.8839   38.6724  -22.4557 S   0  0  0  0  0  0  0  0  0  0  0  0
  -21.3932   39.1178  -21.8140 N   0  0  0  0  0  0  0  0  0  0  0  0
  -20.0173   38.7936  -21.6745 C   0  0  0  0  0  0  0  0  0  0  0  0
  -19.1543   39.6445  -22.5200 C   0  0  0  0  0  0  0  0  0  0  0  0
  -19.2269   39.4972  -23.8892 C   0  0  0  0  0  0  0  0  0  0  0  0
  -18.4177   40.2726  -24.7283 C   0  0  0  0  0  0  0  0  0  0  0  0
  -17.5446   41.1880  -24.1678 C   0  0  0  0  0  0  0  0  0  0  0  0
  -17.4645   41.3424  -22.8024 C   0  0  0  0  0  0  0  0  0  0  0  0
  -16.5761   42.2708  -22.2904 O   0  0  0  0  0  0  0  0  0  0  0  0
  -18.2852   40.5533  -21.9970 C   0  0  0  0  0  0  0  0  0  0  0  0
  1  2  1  0
  2  3  1  0
  2  4  1  0
  4  5  1  0
  5  6  2  0
  5  7  1  0
  7  8  2  0
  8  9  1  0
  8 10  1  0
 10 11  1  0
 11 12  2  0
 11 13  1  0
 13 14  1  0
 14 15  1  0
 15 16  2  0
 16 17  1  0
 17 18  2  0
 18 19  1  0
 19 20  1  0
 19 21  2  0
  9  2  1  0
 21 15  1  0
 14  7  1  0
M  END
$$$$
