
     RDKit          3D

 18 20  0  0  0  0  0  0  0  0999 V2000
  -20.4551   37.9794  -23.1886 O   0  0  0  0  0  0  0  0  0  0  0  0
  -19.6456   38.7033  -22.5656 C   0  0  0  0  0  0  0  0  0  0  0  0
  -19.6827   38.7754  -21.0845 C   0  0  0  0  0  0  0  0  0  0  0  0
  -19.7016   40.2200  -20.6844 C   0  0  0  0  0  0  0  0  0  0  0  0
  -18.6689   41.0215  -21.3452 C   0  0  0  0  0  0  0  0  0  0  0  0
  -18.0939   42.2575  -20.7780 C   0  0  0  0  0  0  0  0  0  0  0  0
  -18.5337   42.8017  -19.6144 C   0  0  0  0  0  0  0  0  0  0  0  0
  -17.9800   43.9595  -19.0957 C   0  0  0  0  0  0  0  0  0  0  0  0
  -16.9523   44.6069  -19.7496 C   0  0  0  0  0  0  0  0  0  0  0  0
  -16.3675   45.8082  -19.2252 N   0  0  0  0  0  0  0  0  0  0  0  0
  -15.4363   46.6021  -19.7565 C   0  0  0  0  0  0  0  0  0  0  0  0
  -15.1809   47.6425  -18.8977 C   0  0  0  0  0  0  0  0  0  0  0  0
  -15.9654   47.4801  -17.8316 N   0  0  0  0  0  0  0  0  0  0  0  0
  -16.6832   46.3649  -18.0366 C   0  0  0  0  0  0  0  0  0  0  0  0
  -16.5130   44.0457  -20.9309 C   0  0  0  0  0  0  0  0  0  0  0  0
  -17.0761   42.8742  -21.4517 C   0  0  0  0  0  0  0  0  0  0  0  0
  -18.2153   40.6399  -22.5047 N   0  0  0  0  0  0  0  0  0  0  0  0
  -18.6427   39.5031  -23.1845 N   0  0  0  0  0  0  0  0  0  0  0  0
  1  2  2  0
  2  3  1  0
  3  4  1  0
  4  5  1  0
  5  6  1  0
  6  7  2  0
  7  8  1  0
  8  9  2  0
  9 10  1  0
 10 11  1  0
 11 12  2  0
 12 13  1  0
 13 14  2  0
  9 15  1  0
 15 16  2  0
  5 17  2  0
 17 18  1  0
 18  2  1  0
 16  6  1  0
 14 10  1  0
M  END
$$$$
