
     RDKit          3D

 18 20  0  0  0  0  0  0  0  0999 V2000
  -15.6422   17.9856  -33.6083 C   0  0  0  0  0  0  0  0  0  0  0  0
  -16.6206   16.8439  -33.3568 C   0  0  0  0  0  0  0  0  0  0  0  0
  -17.1439   16.4202  -34.7262 C   0  0  0  0  0  0  0  0  0  0  0  0
  -17.7646   17.3240  -32.5062 C   0  0  0  0  0  0  0  0  0  0  0  0
  -18.3803   16.1707  -31.7220 C   0  0  0  0  0  0  0  0  0  0  0  0
  -17.3397   15.3806  -31.0273 C   0  0  0  0  0  0  0  0  0  0  0  0
  -16.1363   15.2174  -31.5546 C   0  0  0  0  0  0  0  0  0  0  0  0
  -15.8780   15.7998  -32.7626 O   0  0  0  0  0  0  0  0  0  0  0  0
  -15.0863   14.4308  -30.8723 C   0  0  0  0  0  0  0  0  0  0  0  0
  -13.8428   14.2757  -31.4413 C   0  0  0  0  0  0  0  0  0  0  0  0
  -12.8594   13.5504  -30.8226 C   0  0  0  0  0  0  0  0  0  0  0  0
  -13.1259   12.9643  -29.6022 C   0  0  0  0  0  0  0  0  0  0  0  0
  -14.3728   13.1180  -29.0285 C   0  0  0  0  0  0  0  0  0  0  0  0
  -15.3712   13.8480  -29.6455 C   0  0  0  0  0  0  0  0  0  0  0  0
  -16.6764   13.9892  -29.0099 C   0  0  0  0  0  0  0  0  0  0  0  0
  -16.9571   13.4704  -27.8995 O   0  0  0  0  0  0  0  0  0  0  0  0
  -17.6715   14.7789  -29.7350 C   0  0  0  0  0  0  0  0  0  0  0  0
  -18.8151   14.9399  -29.2445 O   0  0  0  0  0  0  0  0  0  0  0  0
  1  2  1  0
  2  3  1  0
  2  4  1  0
  4  5  1  0
  5  6  1  0
  6  7  2  0
  7  8  1  0
  7  9  1  0
  9 10  2  0
 10 11  1  0
 11 12  2  0
 12 13  1  0
 13 14  2  0
 14 15  1  0
 15 16  2  0
 15 17  1  0
 17 18  2  0
  8  2  1  0
 14  9  1  0
 17  6  1  0
M  END
$$$$
