
     RDKit          3D

 16 18  0  0  0  0  0  0  0  0999 V2000
  -44.8500    7.2826  -30.3536 O   0  0  0  0  0  0  0  0  0  0  0  0
  -44.7231    8.0813  -31.3273 C   0  0  0  0  0  0  0  0  0  0  0  0
  -43.4568    8.7413  -31.5915 C   0  0  0  0  0  0  0  0  0  0  0  0
  -42.4368    8.5406  -30.8573 O   0  0  0  0  0  0  0  0  0  0  0  0
  -43.2664    9.6673  -32.7003 C   0  0  0  0  0  0  0  0  0  0  0  0
  -42.0480   10.2852  -32.9323 C   0  0  0  0  0  0  0  0  0  0  0  0
  -41.8945   11.1578  -33.9893 C   0  0  0  0  0  0  0  0  0  0  0  0
  -42.9810   11.3908  -34.7962 C   0  0  0  0  0  0  0  0  0  0  0  0
  -44.2065   10.7680  -34.5612 C   0  0  0  0  0  0  0  0  0  0  0  0
  -44.3851    9.8922  -33.5118 C   0  0  0  0  0  0  0  0  0  0  0  0
  -45.6650    9.2467  -33.2728 C   0  0  0  0  0  0  0  0  0  0  0  0
  -46.7540    9.4789  -34.0799 C   0  0  0  0  0  0  0  0  0  0  0  0
  -47.9823    8.8628  -33.8548 C   0  0  0  0  0  0  0  0  0  0  0  0
  -48.1489    7.9941  -32.8090 C   0  0  0  0  0  0  0  0  0  0  0  0
  -47.0800    7.7384  -31.9808 C   0  0  0  0  0  0  0  0  0  0  0  0
  -45.8463    8.3593  -32.2096 C   0  0  0  0  0  0  0  0  0  0  0  0
  1  2  2  0
  2  3  1  0
  3  4  2  0
  3  5  1  0
  5  6  2  0
  6  7  1  0
  7  8  2  0
  8  9  1  0
  9 10  2  0
 10 11  1  0
 11 12  2  0
 12 13  1  0
 13 14  2  0
 14 15  1  0
 15 16  2  0
 16  2  1  0
 10  5  1  0
 16 11  1  0
M  END
$$$$
