
     RDKit          3D

 23 24  0  0  0  0  0  0  0  0999 V2000
  -15.7552   19.3320  -34.3283 N   0  0  0  0  0  0  0  0  0  0  0  0
  -15.3438   18.2187  -34.1911 C   0  0  0  0  0  0  0  0  0  0  0  0
  -14.8257   16.8816  -34.0367 C   0  0  0  0  0  0  0  0  0  0  0  0
  -15.9559   15.9152  -33.9507 C   0  0  0  0  0  0  0  0  0  0  0  0
  -16.2464   15.3573  -32.7367 C   0  0  0  0  0  0  0  0  0  0  0  0
  -17.2652   14.4465  -32.5970 C   0  0  0  0  0  0  0  0  0  0  0  0
  -18.0248   14.0735  -33.6965 C   0  0  0  0  0  0  0  0  0  0  0  0
  -17.7077   14.6537  -34.9074 C   0  0  0  0  0  0  0  0  0  0  0  0
  -16.6921   15.5646  -35.0561 C   0  0  0  0  0  0  0  0  0  0  0  0
  -16.3514   16.1978  -36.3009 C   0  0  0  0  0  0  0  0  0  0  0  0
  -16.0837   16.7380  -37.3505 C   0  0  0  0  0  0  0  0  0  0  0  0
  -15.7889   17.3808  -38.6062 C   0  0  0  0  0  0  0  0  0  0  0  0
  -16.8084   17.6602  -39.5124 C   0  0  0  0  0  0  0  0  0  0  0  0
  -16.5140   18.2678  -40.7151 C   0  0  0  0  0  0  0  0  0  0  0  0
  -15.2063   18.6172  -41.0586 C   0  0  0  0  0  0  0  0  0  0  0  0
  -14.9542   19.2407  -42.3550 C   0  0  0  0  0  0  0  0  0  0  0  0
  -16.1027   19.9396  -42.9902 C   0  0  0  0  0  0  0  0  0  0  0  0
  -16.7270   21.0102  -42.2206 C   0  0  0  0  0  0  0  0  0  0  0  0
  -17.9548   21.3192  -42.3237 O   0  0  0  0  0  0  0  0  0  0  0  0
  -15.9944   21.7678  -41.3112 O   0  0  0  0  0  0  0  0  0  0  0  0
  -14.1875   18.3479  -40.1722 C   0  0  0  0  0  0  0  0  0  0  0  0
  -12.8804   18.6773  -40.4479 F   0  0  0  0  0  0  0  0  0  0  0  0
  -14.5132   17.7390  -38.9766 C   0  0  0  0  0  0  0  0  0  0  0  0
  1  2  3  0
  2  3  1  0
  3  4  1  0
  4  5  2  0
  5  6  1  0
  6  7  2  0
  7  8  1  0
  8  9  2  0
  9 10  1  0
 10 11  3  0
 11 12  1  0
 12 13  2  0
 13 14  1  0
 14 15  2  0
 15 16  1  0
 16 17  1  0
 17 18  1  0
 18 19  2  0
 18 20  1  0
 15 21  1  0
 21 22  1  0
 21 23  2  0
  9  4  1  0
 23 12  1  0
M  END
$$$$
