
     RDKit          3D

 33 37  0  0  0  0  0  0  0  0999 V2000
  -20.1854   32.4867  -25.4123 N   0  0  0  0  0  0  0  0  0  0  0  0
  -19.5756   32.8899  -24.5250 C   0  0  0  0  0  0  0  0  0  0  0  0
  -18.8231   33.4144  -23.4212 C   0  0  0  0  0  0  0  0  0  0  0  0
  -17.7506   32.7034  -22.8939 C   0  0  0  0  0  0  0  0  0  0  0  0
  -17.0921   33.2787  -21.8452 C   0  0  0  0  0  0  0  0  0  0  0  0
  -17.4288   34.4951  -21.2990 C   0  0  0  0  0  0  0  0  0  0  0  0
  -16.9438   35.2518  -20.2889 N   0  0  0  0  0  0  0  0  0  0  0  0
  -17.6680   36.3791  -20.1819 C   0  0  0  0  0  0  0  0  0  0  0  0
  -18.6531   36.3615  -21.1463 C   0  0  0  0  0  0  0  0  0  0  0  0
  -19.6992   37.3753  -21.4285 C   0  0  0  0  0  0  0  0  0  0  0  0
  -19.1743   38.3083  -22.4781 C   0  0  0  0  0  0  0  0  0  0  0  0
  -20.2478   38.9904  -23.2826 C   0  0  0  0  0  0  0  0  0  0  0  0
  -19.7022   40.1220  -24.1159 C   0  0  0  0  0  0  0  0  0  0  0  0
  -19.4863   41.3396  -23.4315 N   0  0  0  0  0  0  0  0  0  0  0  0
  -20.6782   42.0598  -23.1727 C   0  0  0  0  0  0  0  0  0  0  0  0
  -20.4752   43.3359  -22.4065 C   0  0  0  0  0  0  0  0  0  0  0  0
  -19.1152   43.6781  -22.1428 N   0  0  0  0  0  0  0  0  0  0  0  0
  -18.8129   45.0075  -21.7153 C   0  0  0  0  0  0  0  0  0  0  0  0
  -18.9917   46.0971  -22.5363 C   0  0  0  0  0  0  0  0  0  0  0  0
  -18.7030   47.3700  -22.1368 C   0  0  0  0  0  0  0  0  0  0  0  0
  -18.2085   47.6160  -20.8613 C   0  0  0  0  0  0  0  0  0  0  0  0
  -17.8537   48.6983  -20.2225 O   0  0  0  0  0  0  0  0  0  0  0  0
  -17.4417   48.4031  -19.0073 C   0  0  0  0  0  0  0  0  0  0  0  0
  -16.9707   49.3216  -18.0010 C   0  0  0  0  0  0  0  0  0  0  0  0
  -16.9600   50.7218  -18.2266 N   0  0  0  0  0  0  0  0  0  0  0  0
  -16.5624   48.8669  -16.9036 O   0  0  0  0  0  0  0  0  0  0  0  0
  -17.5388   47.0300  -18.8535 C   0  0  0  0  0  0  0  0  0  0  0  0
  -18.0254   46.5411  -20.0331 C   0  0  0  0  0  0  0  0  0  0  0  0
  -18.3214   45.2380  -20.4437 C   0  0  0  0  0  0  0  0  0  0  0  0
  -17.9884   42.7777  -22.2686 C   0  0  0  0  0  0  0  0  0  0  0  0
  -18.5004   41.3554  -22.4113 C   0  0  0  0  0  0  0  0  0  0  0  0
  -18.5050   35.1881  -21.8430 C   0  0  0  0  0  0  0  0  0  0  0  0
  -19.1906   34.6308  -22.9049 C   0  0  0  0  0  0  0  0  0  0  0  0
  1  2  3  0
  2  3  1  0
  3  4  2  0
  4  5  1  0
  5  6  2  0
  6  7  1  0
  7  8  1  0
  8  9  2  0
  9 10  1  0
 10 11  1  0
 11 12  1  0
 12 13  1  0
 13 14  1  0
 14 15  1  0
 15 16  1  0
 16 17  1  0
 17 18  1  0
 18 19  2  0
 19 20  1  0
 20 21  2  0
 21 22  1  0
 22 23  1  0
 23 24  1  0
 24 25  1  0
 24 26  2  0
 23 27  2  0
 27 28  1  0
 28 29  2  0
 17 30  1  0
 30 31  1  0
  9 32  1  0
 32 33  2  0
 33  3  1  0
 32  6  1  0
 31 14  1  0
 29 18  1  0
 28 21  1  0
M  END
$$$$
