
     RDKit          3D

 19 21  0  0  0  0  0  0  0  0999 V2000
  -14.2408   44.9347  -18.6263 C   0  0  0  0  0  0  0  0  0  0  0  0
  -14.7999   43.8549  -19.3062 O   0  0  0  0  0  0  0  0  0  0  0  0
  -16.0256   43.8681  -19.9721 C   0  0  0  0  0  0  0  0  0  0  0  0
  -16.6693   45.0036  -20.3721 C   0  0  0  0  0  0  0  0  0  0  0  0
  -17.8906   44.9822  -21.0339 C   0  0  0  0  0  0  0  0  0  0  0  0
  -18.4623   43.7525  -21.2893 C   0  0  0  0  0  0  0  0  0  0  0  0
  -19.5995   43.3691  -21.8884 N   0  0  0  0  0  0  0  0  0  0  0  0
  -19.7020   42.0317  -21.8840 C   0  0  0  0  0  0  0  0  0  0  0  0
  -18.5898   41.5180  -21.2582 C   0  0  0  0  0  0  0  0  0  0  0  0
  -18.2719   40.0655  -21.0243 C   0  0  0  0  0  0  0  0  0  0  0  0
  -17.8681   39.4725  -22.3585 C   0  0  0  0  0  0  0  0  0  0  0  0
  -18.7102   38.3873  -22.7567 N   0  0  0  0  0  0  0  0  0  0  0  0
  -19.0073   37.2789  -21.9053 C   0  0  0  0  0  0  0  0  0  0  0  0
  -18.5062   37.2756  -20.7441 O   0  0  0  0  0  0  0  0  0  0  0  0
  -19.8793   36.1835  -22.3992 C   0  0  0  0  0  0  0  0  0  0  0  0
  -19.5931   34.7657  -22.0637 C   0  0  0  0  0  0  0  0  0  0  0  0
  -20.7853   35.4653  -21.4906 C   0  0  0  0  0  0  0  0  0  0  0  0
  -17.8212   42.6018  -20.8902 C   0  0  0  0  0  0  0  0  0  0  0  0
  -16.5911   42.6390  -20.2243 C   0  0  0  0  0  0  0  0  0  0  0  0
  1  2  1  0
  2  3  1  0
  3  4  2  0
  4  5  1  0
  5  6  2  0
  6  7  1  0
  7  8  1  0
  8  9  2  0
  9 10  1  0
 10 11  1  0
 11 12  1  0
 12 13  1  0
 13 14  2  0
 13 15  1  0
 15 16  1  0
 16 17  1  0
  9 18  1  0
 18 19  2  0
 19  3  1  0
 18  6  1  0
 17 15  1  0
M  END
$$$$
