
     RDKit          3D

 38 41  0  0  0  0  0  0  0  0999 V2000
  -18.5510   18.1248  -35.8119 Cl  0  0  0  0  0  0  0  0  0  0  0  0
  -18.5508   18.1242  -35.8111 Cl  0  0  0  0  0  0  0  0  0  0  0  0
  -23.4148   18.1572  -37.7588 C   0  0  0  0  0  0  0  0  0  0  0  0
  -22.3851   17.2459  -37.8416 C   0  0  0  0  0  0  0  0  0  0  0  0
  -21.1482   17.7242  -38.2360 C   0  0  0  0  0  0  0  0  0  0  0  0
  -20.9567   19.0684  -38.5340 C   0  0  0  0  0  0  0  0  0  0  0  0
  -19.7430   19.5633  -38.9414 C   0  0  0  0  0  0  0  0  0  0  0  0
  -18.5910   18.7602  -38.9978 N   0  0  0  0  0  0  0  0  0  0  0  0
  -17.6342   18.6995  -37.9247 C   0  0  0  0  0  0  0  0  0  0  0  0
  -18.2483   18.2217  -36.6643 C   0  0  0  0  0  0  0  0  0  0  0  0
  -17.2512   18.2019  -35.5093 C   0  0  0  0  0  0  0  0  0  0  0  0
  -16.0741   17.3159  -35.7538 C   0  0  0  0  0  0  0  0  0  0  0  0
  -15.1722   17.3597  -34.5733 C   0  0  0  0  0  0  0  0  0  0  0  0
  -15.7540   16.8832  -33.2829 C   0  0  0  0  0  0  0  0  0  0  0  0
  -16.1705   15.4982  -33.3200 N   0  0  0  0  0  0  0  0  0  0  0  0
  -16.6829   14.9365  -32.1186 C   0  0  0  0  0  0  0  0  0  0  0  0
  -18.0193   14.9522  -31.8067 C   0  0  0  0  0  0  0  0  0  0  0  0
  -18.4990   14.4105  -30.6183 C   0  0  0  0  0  0  0  0  0  0  0  0
  -17.6381   13.8664  -29.7705 N   0  0  0  0  0  0  0  0  0  0  0  0
  -16.3092   13.8397  -30.0600 C   0  0  0  0  0  0  0  0  0  0  0  0
  -15.4217   13.2626  -29.1537 C   0  0  0  0  0  0  0  0  0  0  0  0
  -14.0727   13.2189  -29.4142 C   0  0  0  0  0  0  0  0  0  0  0  0
  -13.6015   13.7551  -30.5888 C   0  0  0  0  0  0  0  0  0  0  0  0
  -14.4393   14.3343  -31.5121 C   0  0  0  0  0  0  0  0  0  0  0  0
  -15.8082   14.3663  -31.2235 C   0  0  0  0  0  0  0  0  0  0  0  0
  -19.9687   14.5079  -30.4243 C   0  0  0  0  0  0  0  0  0  0  0  0
  -20.4679   15.9116  -30.6870 C   0  0  0  0  0  0  0  0  0  0  0  0
  -19.8643   16.5272  -31.9309 C   0  0  0  0  0  0  0  0  0  0  0  0
  -19.0411   15.5288  -32.7069 C   0  0  0  0  0  0  0  0  0  0  0  0
  -19.6138   20.9283  -39.2498 C   0  0  0  0  0  0  0  0  0  0  0  0
  -20.6795   21.7918  -39.1516 C   0  0  0  0  0  0  0  0  0  0  0  0
  -21.8481   21.2731  -38.7480 N   0  0  0  0  0  0  0  0  0  0  0  0
  -22.0097   19.9708  -38.4451 C   0  0  0  0  0  0  0  0  0  0  0  0
  -23.2387   19.4935  -38.0530 C   0  0  0  0  0  0  0  0  0  0  0  0
  -20.4708   23.2197  -39.4928 C   0  0  0  0  0  0  0  0  0  0  0  0
  -19.7336   23.2722  -40.8027 C   0  0  0  0  0  0  0  0  0  0  0  0
  -18.5754   22.3407  -40.9099 C   0  0  0  0  0  0  0  0  0  0  0  0
  -18.3175   21.4976  -39.6959 C   0  0  0  0  0  0  0  0  0  0  0  0
  3  4  2  0
  4  5  1  0
  5  6  2  0
  6  7  1  0
  7  8  1  0
  8  9  1  0
  9 10  1  0
 10 11  1  0
 11 12  1  0
 12 13  1  0
 13 14  1  0
 14 15  1  0
 15 16  1  0
 16 17  2  0
 17 18  1  0
 18 19  2  0
 19 20  1  0
 20 21  2  0
 21 22  1  0
 22 23  2  0
 23 24  1  0
 24 25  2  0
 18 26  1  0
 26 27  1  0
 27 28  1  0
 28 29  1  0
  7 30  2  0
 30 31  1  0
 31 32  2  0
 32 33  1  0
 33 34  2  0
 31 35  1  0
 35 36  1  0
 36 37  1  0
 37 38  1  0
 34  3  1  0
 33  6  1  0
 25 16  1  0
 38 30  1  0
 29 17  1  0
 25 20  1  0
M  END
$$$$
