
     RDKit          3D

 23 25  0  0  0  0  0  0  0  0999 V2000
  -19.2516   40.6029  -21.8686 C   0  0  0  0  0  0  0  0  0  0  0  0
  -18.0983   40.9761  -21.1774 C   0  0  0  0  0  0  0  0  0  0  0  0
  -17.9957   40.8151  -19.8249 C   0  0  0  0  0  0  0  0  0  0  0  0
  -16.8314   41.1928  -19.1286 O   0  0  0  0  0  0  0  0  0  0  0  0
  -15.8457   41.9247  -19.8024 C   0  0  0  0  0  0  0  0  0  0  0  0
  -15.5970   43.2077  -19.0418 C   0  0  0  0  0  0  0  0  0  0  0  0
  -14.8625   44.1769  -19.9279 C   0  0  0  0  0  0  0  0  0  0  0  0
  -14.2318   45.2452  -19.1818 N   0  0  0  0  0  0  0  0  0  0  0  0
  -13.5050   44.7117  -18.0795 C   0  0  0  0  0  0  0  0  0  0  0  0
  -12.8500   45.7477  -17.2008 C   0  0  0  0  0  0  0  0  0  0  0  0
  -13.7777   46.8958  -16.8879 C   0  0  0  0  0  0  0  0  0  0  0  0
  -15.1664   46.6543  -17.4468 C   0  0  0  0  0  0  0  0  0  0  0  0
  -15.1427   46.3021  -18.8955 C   0  0  0  0  0  0  0  0  0  0  0  0
  -19.0427   40.2738  -19.1056 C   0  0  0  0  0  0  0  0  0  0  0  0
  -20.1915   39.9042  -19.8080 C   0  0  0  0  0  0  0  0  0  0  0  0
  -20.3101   40.0600  -21.1701 C   0  0  0  0  0  0  0  0  0  0  0  0
  -21.5493   39.6458  -21.8331 C   0  0  0  0  0  0  0  0  0  0  0  0
  -21.7450   38.2393  -21.9589 N   0  0  0  0  0  0  0  0  0  0  0  0
  -23.0761   37.7990  -22.1716 C   0  0  0  0  0  0  0  0  0  0  0  0
  -23.1939   36.4609  -22.8400 C   0  0  0  0  0  0  0  0  0  0  0  0
  -22.1073   35.4963  -22.5651 C   0  0  0  0  0  0  0  0  0  0  0  0
  -20.8065   36.0801  -22.1162 C   0  0  0  0  0  0  0  0  0  0  0  0
  -20.7193   37.5202  -22.6424 C   0  0  0  0  0  0  0  0  0  0  0  0
  1  2  2  0
  2  3  1  0
  3  4  1  0
  4  5  1  0
  5  6  1  0
  6  7  1  0
  7  8  1  0
  8  9  1  0
  9 10  1  0
 10 11  1  0
 11 12  1  0
 12 13  1  0
  3 14  2  0
 14 15  1  0
 15 16  2  0
 16 17  1  0
 17 18  1  0
 18 19  1  0
 19 20  1  0
 20 21  1  0
 21 22  1  0
 22 23  1  0
 16  1  1  0
 23 18  1  0
 13  8  1  0
M  END
$$$$
