
     RDKit          3D

 38 42  0  0  0  0  0  0  0  0999 V2000
  -15.7382   20.4410  -30.5489 C   0  0  0  0  0  0  0  0  0  0  0  0
  -16.8118   20.2376  -31.2925 C   0  0  0  0  0  0  0  0  0  0  0  0
  -17.8266   21.2967  -31.3478 C   0  0  0  0  0  0  0  0  0  0  0  0
  -17.4477   22.4787  -31.4771 O   0  0  0  0  0  0  0  0  0  0  0  0
  -19.2174   20.9937  -31.2572 N   0  0  0  0  0  0  0  0  0  0  0  0
  -20.2467   21.9457  -31.4159 C   0  0  0  0  0  0  0  0  0  0  0  0
  -20.9108   22.5349  -30.3214 C   0  0  0  0  0  0  0  0  0  0  0  0
  -21.9381   23.4249  -30.5225 C   0  0  0  0  0  0  0  0  0  0  0  0
  -22.6980   23.8947  -29.4245 N   0  0  0  0  0  0  0  0  0  0  0  0
  -22.2674   25.1284  -28.9487 C   0  0  0  0  0  0  0  0  0  0  0  0
  -21.4008   25.7292  -29.5875 O   0  0  0  0  0  0  0  0  0  0  0  0
  -22.7454   25.7163  -27.8141 C   0  0  0  0  0  0  0  0  0  0  0  0
  -23.6930   25.0782  -27.0969 C   0  0  0  0  0  0  0  0  0  0  0  0
  -24.1402   23.8698  -27.5341 C   0  0  0  0  0  0  0  0  0  0  0  0
  -25.0832   23.1772  -26.8338 C   0  0  0  0  0  0  0  0  0  0  0  0
  -25.5602   22.0094  -27.1740 N   0  0  0  0  0  0  0  0  0  0  0  0
  -25.0885   21.4301  -28.3210 C   0  0  0  0  0  0  0  0  0  0  0  0
  -25.6369   20.2222  -28.7166 C   0  0  0  0  0  0  0  0  0  0  0  0
  -25.2232   19.6569  -29.8900 C   0  0  0  0  0  0  0  0  0  0  0  0
  -24.2827   20.2519  -30.6858 C   0  0  0  0  0  0  0  0  0  0  0  0
  -23.9476   19.6087  -31.9458 C   0  0  0  0  0  0  0  0  0  0  0  0
  -24.5425   19.8995  -33.1422 C   0  0  0  0  0  0  0  0  0  0  0  0
  -24.2120   19.2225  -34.3215 C   0  0  0  0  0  0  0  0  0  0  0  0
  -23.2531   18.2288  -34.2661 C   0  0  0  0  0  0  0  0  0  0  0  0
  -22.9867   17.5623  -35.5078 N   0  0  0  0  0  0  0  0  0  0  0  0
  -24.1768   16.5244  -36.2254 S   0  0  0  0  0  6  0  0  0  0  0  0
  -25.7489   16.7777  -35.4066 C   0  0  0  0  0  0  0  0  0  0  0  0
  -24.2825   16.8029  -37.6939 O   0  0  0  0  0  0  0  0  0  0  0  0
  -23.7708   15.0938  -36.0354 O   0  0  0  0  0  0  0  0  0  0  0  0
  -22.6472   17.9211  -33.0950 C   0  0  0  0  0  0  0  0  0  0  0  0
  -22.9846   18.6047  -31.9227 C   0  0  0  0  0  0  0  0  0  0  0  0
  -23.7307   21.4608  -30.2851 C   0  0  0  0  0  0  0  0  0  0  0  0
  -24.1310   22.0448  -29.1042 C   0  0  0  0  0  0  0  0  0  0  0  0
  -23.6311   23.2773  -28.7211 C   0  0  0  0  0  0  0  0  0  0  0  0
  -22.3239   23.7447  -31.8188 C   0  0  0  0  0  0  0  0  0  0  0  0
  -21.6867   23.1795  -32.8558 C   0  0  0  0  0  0  0  0  0  0  0  0
  -20.6538   22.2850  -32.6928 C   0  0  0  0  0  0  0  0  0  0  0  0
  -20.0189   21.6851  -33.9137 C   0  0  0  0  0  0  0  0  0  0  0  0
  1  2  2  0
  2  3  1  0
  3  4  2  0
  3  5  1  0
  5  6  1  0
  6  7  2  0
  7  8  1  0
  8  9  1  0
  9 10  1  0
 10 11  2  0
 10 12  1  0
 12 13  2  0
 13 14  1  0
 14 15  2  0
 15 16  1  0
 16 17  2  0
 17 18  1  0
 18 19  2  0
 19 20  1  0
 20 21  1  0
 21 22  2  0
 22 23  1  0
 23 24  2  0
 24 25  1  0
 25 26  1  0
 26 27  1  0
 26 28  2  0
 26 29  2  0
 24 30  1  0
 30 31  2  0
 20 32  2  0
 32 33  1  0
 33 34  2  0
  8 35  2  0
 35 36  1  0
 36 37  2  0
 37 38  1  0
 37  6  1  0
 34  9  1  0
 34 14  1  0
 33 17  1  0
 31 21  1  0
M  END
$$$$
