
     RDKit          3D

 34 38  0  0  0  0  0  0  0  0999 V2000
  -29.7205   28.5846  -34.8120 C   0  0  0  0  0  0  0  0  0  0  0  0
  -28.3124   29.1225  -35.1173 C   0  0  0  0  0  0  0  0  0  0  0  0
  -27.8480   29.8343  -33.8988 C   0  0  0  0  0  0  0  0  0  0  0  0
  -28.4764   30.0558  -36.3108 C   0  0  1  0  0  0  0  0  0  0  0  0
  -28.2639   31.3892  -35.9232 O   0  0  0  0  0  0  0  0  0  0  0  0
  -27.5499   29.6642  -37.4397 C   0  0  0  0  0  0  0  0  0  0  0  0
  -26.1456   29.3890  -36.9513 C   0  0  0  0  0  0  0  0  0  0  0  0
  -26.0909   28.2436  -35.9569 C   0  0  1  0  0  0  0  0  0  0  0  0
  -25.1943   28.6448  -34.8421 C   0  0  0  0  0  0  0  0  0  0  0  0
  -27.5097   27.9573  -35.5437 C   0  0  1  0  0  0  0  0  0  0  0  0
  -27.5911   26.7837  -34.5702 C   0  0  0  0  0  0  0  0  0  0  0  0
  -27.2028   25.5612  -35.3797 C   0  0  0  0  0  0  0  0  0  0  0  0
  -25.8062   25.7427  -35.8946 C   0  0  2  0  0  0  0  0  0  0  0  0
  -24.8555   25.5401  -34.7466 C   0  0  0  0  0  0  0  0  0  0  0  0
  -25.5883   27.0123  -36.6473 C   0  0  2  0  0  0  0  0  0  0  0  0
  -24.1760   27.0564  -37.0629 C   0  0  0  0  0  0  0  0  0  0  0  0
  -23.5506   28.1061  -37.3806 O   0  0  0  0  0  0  0  0  0  0  0  0
  -23.4269   25.8021  -37.1177 C   0  0  0  0  0  0  0  0  0  0  0  0
  -24.0344   24.6127  -37.0399 C   0  0  0  0  0  0  0  0  0  0  0  0
  -23.1861   23.4195  -37.1057 C   0  0  2  0  0  0  0  0  0  0  0  0
  -22.5148   23.3956  -38.4603 C   0  0  0  0  0  0  0  0  0  0  0  0
  -21.4690   22.3089  -38.5577 C   0  0  1  0  0  0  0  0  0  0  0  0
  -21.3489   21.9400  -40.0180 C   0  0  0  0  0  0  0  0  0  0  0  0
  -20.1500   22.7566  -38.0740 C   0  0  0  0  0  0  0  0  0  0  0  0
  -19.1384   22.0735  -38.3350 O   0  0  0  0  0  0  0  0  0  0  0  0
  -19.9722   23.9193  -37.3300 O   0  0  0  0  0  0  0  0  0  0  0  0
  -21.8558   21.0878  -37.7493 C   0  0  0  0  0  0  0  0  0  0  0  0
  -23.3463   21.0247  -37.6738 C   0  0  0  0  0  0  0  0  0  0  0  0
  -23.8930   22.1424  -36.7773 C   0  0  1  0  0  0  0  0  0  0  0  0
  -23.6443   21.7023  -35.3499 C   0  0  0  0  0  0  0  0  0  0  0  0
  -25.3742   22.1864  -37.0052 C   0  0  0  0  0  0  0  0  0  0  0  0
  -26.0509   23.3513  -36.3275 C   0  0  0  0  0  0  0  0  0  0  0  0
  -25.5044   24.6125  -36.8930 C   0  0  1  0  0  0  0  0  0  0  0  0
  -26.1633   24.8737  -38.2190 C   0  0  0  0  0  0  0  0  0  0  0  0
  1  2  1  0
  2  3  1  0
  2  4  1  0
  4  5  1  1
  4  6  1  0
  6  7  1  0
  7  8  1  0
  8  9  1  1
  8 10  1  0
 10 11  1  1
 11 12  1  0
 12 13  1  0
 13 14  1  1
 13 15  1  0
 15 16  1  1
 16 17  2  0
 16 18  1  0
 18 19  2  0
 19 20  1  0
 20 21  1  6
 21 22  1  0
 22 23  1  6
 22 24  1  0
 24 25  2  0
 24 26  1  0
 22 27  1  0
 27 28  1  0
 28 29  1  0
 29 30  1  1
 29 31  1  0
 31 32  1  0
 32 33  1  0
 33 34  1  6
 10  2  1  0
 33 13  1  0
 15  8  1  0
 33 19  1  0
 29 20  1  0
M  END
$$$$
