
     RDKit          3D

 33 37  0  0  0  0  0  0  0  0999 V2000
  -11.1639   45.5939  -14.1325 C   0  0  0  0  0  0  0  0  0  0  0  0
  -11.9081   46.4188  -15.0153 N   0  0  0  0  0  0  0  0  0  0  0  0
  -11.3530   46.4333  -16.3410 C   0  0  0  0  0  0  0  0  0  0  0  0
  -11.9453   45.4091  -17.2735 C   0  0  0  0  0  0  0  0  0  0  0  0
  -13.1449   45.9026  -18.0407 C   0  0  0  0  0  0  0  0  0  0  0  0
  -14.2261   46.3343  -17.1992 N   0  0  0  0  0  0  0  0  0  0  0  0
  -15.5508   46.1279  -17.6104 C   0  0  0  0  0  0  0  0  0  0  0  0
  -16.5321   46.4650  -16.8347 O   0  0  0  0  0  0  0  0  0  0  0  0
  -15.9794   45.5525  -18.8675 C   0  0  0  0  0  0  0  0  0  0  0  0
  -15.7695   46.3477  -19.9990 C   0  0  0  0  0  0  0  0  0  0  0  0
  -16.2115   45.8843  -21.2109 C   0  0  0  0  0  0  0  0  0  0  0  0
  -16.8600   44.6402  -21.3074 C   0  0  0  0  0  0  0  0  0  0  0  0
  -17.0688   43.8555  -20.2034 C   0  0  0  0  0  0  0  0  0  0  0  0
  -17.8173   42.5935  -20.2874 C   0  0  0  0  0  0  0  0  0  0  0  0
  -18.7476   42.1579  -19.3485 C   0  0  0  0  0  0  0  0  0  0  0  0
  -19.2063   40.9557  -19.7936 C   0  0  0  0  0  0  0  0  0  0  0  0
  -18.5418   40.6596  -21.0279 C   0  0  0  0  0  0  0  0  0  0  0  0
  -18.8452   39.4510  -21.7420 C   0  0  0  0  0  0  0  0  0  0  0  0
  -19.6266   38.4929  -21.3607 C   0  0  0  0  0  0  0  0  0  0  0  0
  -20.2497   38.3790  -20.0010 C   0  0  0  0  0  0  0  0  0  0  0  0
  -20.0756   39.2094  -19.0671 O   0  0  0  0  0  0  0  0  0  0  0  0
  -21.0183   37.2027  -20.0204 N   0  0  0  0  0  0  0  0  0  0  0  0
  -20.8994   36.5970  -21.2998 C   0  0  0  0  0  0  0  0  0  0  0  0
  -21.4775   35.4322  -21.7376 C   0  0  0  0  0  0  0  0  0  0  0  0
  -21.2112   35.0131  -23.0297 C   0  0  0  0  0  0  0  0  0  0  0  0
  -20.3926   35.7407  -23.8434 C   0  0  0  0  0  0  0  0  0  0  0  0
  -20.0896   35.1613  -25.4633 Cl  0  0  0  0  0  0  0  0  0  0  0  0
  -19.7981   36.9229  -23.4199 C   0  0  0  0  0  0  0  0  0  0  0  0
  -20.0674   37.3415  -22.1353 C   0  0  0  0  0  0  0  0  0  0  0  0
  -17.7827   41.6841  -21.1754 O   0  0  0  0  0  0  0  0  0  0  0  0
  -16.6150   44.3353  -18.9892 C   0  0  0  0  0  0  0  0  0  0  0  0
  -14.0849   47.0018  -15.8985 C   0  0  0  0  0  0  0  0  0  0  0  0
  -13.3086   46.0582  -15.0100 C   0  0  0  0  0  0  0  0  0  0  0  0
  1  2  1  0
  2  3  1  0
  3  4  1  0
  4  5  1  0
  5  6  1  0
  6  7  1  0
  7  8  2  0
  7  9  1  0
  9 10  2  0
 10 11  1  0
 11 12  2  0
 12 13  1  0
 13 14  1  0
 14 15  2  0
 15 16  1  0
 16 17  2  0
 17 18  1  0
 18 19  2  0
 19 20  1  0
 20 21  2  0
 20 22  1  0
 22 23  1  0
 23 24  2  0
 24 25  1  0
 25 26  2  0
 26 27  1  0
 26 28  1  0
 28 29  2  0
 17 30  1  0
 13 31  2  0
  6 32  1  0
 32 33  1  0
 33  2  1  0
 31  9  1  0
 30 14  1  0
 29 19  1  0
 29 23  1  0
M  END
$$$$
