
     RDKit          3D

 17 18  0  0  0  0  0  0  0  0999 V2000
  -16.8223   34.5750  -20.6888 O   0  0  0  0  0  0  0  0  0  0  0  0
  -17.7611   35.3048  -21.1045 C   0  0  0  0  0  0  0  0  0  0  0  0
  -17.6361   36.6351  -21.0543 N   0  0  0  0  0  0  0  0  0  0  0  0
  -18.6220   37.4454  -21.4910 C   0  0  0  0  0  0  0  0  0  0  0  0
  -18.4283   38.6913  -21.4104 O   0  0  0  0  0  0  0  0  0  0  0  0
  -19.7753   36.9701  -21.9967 N   0  0  0  0  0  0  0  0  0  0  0  0
  -20.7627   37.8899  -22.4345 C   0  0  1  0  0  0  0  0  0  0  0  0
  -20.5043   39.3193  -21.9348 C   0  0  0  0  0  0  0  0  0  0  0  0
  -21.5856   40.0297  -22.7557 C   0  0  2  0  0  0  0  0  0  0  0  0
  -22.7851   39.8140  -22.0707 O   0  0  0  0  0  0  0  0  0  0  0  0
  -21.5642   39.2103  -24.0181 C   0  0  1  0  0  0  0  0  0  0  0  0
  -20.9653   40.0062  -25.1639 C   0  0  0  0  0  0  0  0  0  0  0  0
  -20.9725   39.2795  -26.3480 O   0  0  0  0  0  0  0  0  0  0  0  0
  -20.8057   38.0923  -23.7948 O   0  0  0  0  0  0  0  0  0  0  0  0
  -19.9143   35.6280  -22.0529 C   0  0  0  0  0  0  0  0  0  0  0  0
  -18.9317   34.7722  -21.6175 C   0  0  0  0  0  0  0  0  0  0  0  0
  -19.1249   32.6954  -21.6949 I   0  0  0  0  0  0  0  0  0  0  0  0
  1  2  2  0
  2  3  1  0
  3  4  1  0
  4  5  2  0
  4  6  1  0
  7  6  1  6
  7  8  1  0
  8  9  1  0
  9 10  1  1
  9 11  1  0
 11 12  1  6
 12 13  1  0
 11 14  1  0
  6 15  1  0
 15 16  2  0
 16 17  1  0
 16  2  1  0
 14  7  1  0
M  END
$$$$
