
     RDKit          3D

 28 32  0  0  0  0  0  0  0  0999 V2000
  -22.7441   25.7008  -39.1263 N   0  0  0  0  0  0  0  0  0  0  0  0
  -22.7767   24.8315  -38.3876 C   0  0  0  0  0  0  0  0  0  0  0  0
  -22.8281   23.7570  -37.4449 C   0  0  0  0  0  0  0  0  0  0  0  0
  -21.7712   22.8317  -37.4148 C   0  0  0  0  0  0  0  0  0  0  0  0
  -21.7219   21.7872  -36.5243 C   0  0  0  0  0  0  0  0  0  0  0  0
  -22.7518   21.6418  -35.6242 C   0  0  0  0  0  0  0  0  0  0  0  0
  -23.7961   22.5304  -35.6319 C   0  0  0  0  0  0  0  0  0  0  0  0
  -24.8585   22.3212  -34.6609 C   0  0  0  0  0  0  0  0  0  0  0  0
  -25.6995   22.1580  -33.8862 N   0  0  0  0  0  0  0  0  0  0  0  0
  -23.8481   23.5997  -36.5432 C   0  0  0  0  0  0  0  0  0  0  0  0
  -25.0214   24.4635  -36.5044 C   0  0  0  0  0  0  0  0  0  0  0  0
  -26.2778   24.0111  -36.7970 N   0  0  0  0  0  0  0  0  0  0  0  0
  -27.1786   24.9693  -36.6583 C   0  0  0  0  0  0  0  0  0  0  0  0
  -28.5432   24.9596  -36.8445 C   0  0  0  0  0  0  0  0  0  0  0  0
  -29.1793   23.7965  -37.2441 C   0  0  0  0  0  0  0  0  0  0  0  0
  -30.5490   23.7729  -37.4336 C   0  0  0  0  0  0  0  0  0  0  0  0
  -31.2460   24.9330  -37.2131 C   0  0  0  0  0  0  0  0  0  0  0  0
  -30.6383   26.1216  -36.8102 C   0  0  0  0  0  0  0  0  0  0  0  0
  -29.2809   26.1255  -36.6277 C   0  0  0  0  0  0  0  0  0  0  0  0
  -28.5760   27.2628  -36.2243 C   0  0  0  0  0  0  0  0  0  0  0  0
  -29.2821   28.4165  -36.0066 C   0  0  0  0  0  0  0  0  0  0  0  0
  -28.5713   29.5546  -35.6023 C   0  0  0  0  0  0  0  0  0  0  0  0
  -29.4463   31.0404  -35.3173 Cl  0  0  0  0  0  0  0  0  0  0  0  0
  -27.2041   29.5071  -35.4310 C   0  0  0  0  0  0  0  0  0  0  0  0
  -26.4901   28.3494  -35.6487 C   0  0  0  0  0  0  0  0  0  0  0  0
  -27.1998   27.2307  -36.0477 C   0  0  0  0  0  0  0  0  0  0  0  0
  -26.4865   26.0869  -36.2618 C   0  0  0  0  0  0  0  0  0  0  0  0
  -25.1727   25.7321  -36.1812 N   0  0  0  0  0  0  0  0  0  0  0  0
  1  2  3  0
  2  3  1  0
  3  4  2  0
  4  5  1  0
  5  6  2  0
  6  7  1  0
  7  8  1  0
  8  9  3  0
  7 10  2  0
 10 11  1  0
 11 12  2  0
 12 13  1  0
 13 14  2  0
 14 15  1  0
 15 16  2  0
 16 17  1  0
 17 18  2  0
 18 19  1  0
 19 20  2  0
 20 21  1  0
 21 22  2  0
 22 23  1  0
 22 24  1  0
 24 25  2  0
 25 26  1  0
 26 27  2  0
 27 28  1  0
 10  3  1  0
 28 11  1  0
 27 13  1  0
 19 14  1  0
 26 20  1  0
M  END
$$$$
