
     RDKit          3D

 11 12  0  0  0  0  0  0  0  0999 V2000
  -21.1194   29.1900  -26.6851 O   0  0  0  0  0  0  0  0  0  0  0  0
  -20.6318   30.3449  -26.6039 C   0  0  0  0  0  0  0  0  0  0  0  0
  -21.0593   31.3277  -27.4731 C   0  0  0  0  0  0  0  0  0  0  0  0
  -20.4890   32.5782  -27.3379 C   0  0  0  0  0  0  0  0  0  0  0  0
  -19.5308   32.7985  -26.3590 C   0  0  0  0  0  0  0  0  0  0  0  0
  -18.9521   34.0406  -26.2111 C   0  0  0  0  0  0  0  0  0  0  0  0
  -17.9969   34.2390  -25.2267 C   0  0  0  0  0  0  0  0  0  0  0  0
  -17.5949   33.2318  -24.3762 C   0  0  0  0  0  0  0  0  0  0  0  0
  -18.1802   31.9848  -24.5293 C   0  0  0  0  0  0  0  0  0  0  0  0
  -19.1315   31.7844  -25.5087 C   0  0  0  0  0  0  0  0  0  0  0  0
  -19.6975   30.5721  -25.6542 N   0  0  0  0  0  0  0  0  0  0  0  0
  1  2  2  0
  2  3  1  0
  3  4  2  0
  4  5  1  0
  5  6  2  0
  6  7  1  0
  7  8  2  0
  8  9  1  0
  9 10  2  0
 10 11  1  0
 11  2  1  0
 10  5  1  0
M  END
$$$$
