
     RDKit          3D

 31 35  0  0  0  0  0  0  0  0999 V2000
   -9.7776   40.8257  -17.0880 C   0  0  0  0  0  0  0  0  0  0  0  0
  -10.8000   41.9448  -17.5831 C   0  0  0  0  0  0  0  0  0  0  0  0
  -11.5677   42.8043  -17.9418 C   0  0  0  0  0  0  0  0  0  0  0  0
  -12.4317   43.7980  -18.3701 C   0  0  0  0  0  0  0  0  0  0  0  0
  -12.5252   44.9763  -17.7554 C   0  0  0  0  0  0  0  0  0  0  0  0
  -13.6104   45.8326  -17.8837 N   0  0  0  0  0  0  0  0  0  0  0  0
  -14.6218   45.4115  -18.6856 C   0  0  0  0  0  0  0  0  0  0  0  0
  -14.6322   44.2406  -19.3635 C   0  0  0  0  0  0  0  0  0  0  0  0
  -15.7173   43.6504  -20.1352 C   0  0  0  0  0  0  0  0  0  0  0  0
  -15.4770   43.1490  -21.3893 C   0  0  0  0  0  0  0  0  0  0  0  0
  -16.4137   42.5853  -22.2145 C   0  0  0  0  0  0  0  0  0  0  0  0
  -17.6883   42.5107  -21.7626 C   0  0  0  0  0  0  0  0  0  0  0  0
  -18.0009   42.9836  -20.5072 C   0  0  0  0  0  0  0  0  0  0  0  0
  -17.0343   43.5505  -19.6987 C   0  0  0  0  0  0  0  0  0  0  0  0
  -19.4560   42.6703  -20.2999 C   0  0  2  0  0  0  0  0  0  0  0  0
  -20.2444   43.7860  -20.6657 N   0  0  0  0  0  0  0  0  0  0  0  0
  -20.9693   44.1305  -19.5999 C   0  0  0  0  0  0  0  0  0  0  0  0
  -21.9102   45.2790  -19.6520 C   0  0  0  0  0  0  0  0  0  0  0  0
  -20.6299   43.1994  -18.5325 C   0  0  0  0  0  0  0  0  0  0  0  0
  -21.1886   43.2667  -17.2122 N   0  0  0  0  0  0  0  0  0  0  0  0
  -19.7455   42.3427  -18.9444 N   0  0  0  0  0  0  0  0  0  0  0  0
  -19.6492   41.4836  -21.2121 C   0  0  1  0  0  0  0  0  0  0  0  0
  -18.8311   40.3425  -20.6368 C   0  0  0  0  0  0  0  0  0  0  0  0
  -19.3592   38.9889  -21.0080 C   0  0  0  0  0  0  0  0  0  0  0  0
  -19.9175   38.9262  -22.4131 C   0  0  2  0  0  0  0  0  0  0  0  0
  -18.9326   38.7228  -23.3493 O   0  0  0  0  0  0  0  0  0  0  0  0
  -18.8836   37.4496  -23.8894 C   0  0  0  0  0  0  0  0  0  0  0  0
  -20.8346   40.0373  -22.7250 C   0  0  0  0  0  0  0  0  0  0  0  0
  -21.0015   41.0275  -21.5686 C   0  0  0  0  0  0  0  0  0  0  0  0
  -18.9085   42.0249  -22.4640 C   0  0  0  0  0  0  0  0  0  0  0  0
  -13.5063   43.3947  -19.2290 C   0  0  0  0  0  0  0  0  0  0  0  0
  1  2  1  0
  2  3  3  0
  3  4  1  0
  4  5  2  0
  5  6  1  0
  6  7  2  0
  7  8  1  0
  8  9  1  0
  9 10  2  0
 10 11  1  0
 11 12  2  0
 12 13  1  0
 13 14  2  0
 13 15  1  0
 15 16  1  6
 16 17  2  0
 17 18  1  0
 17 19  1  0
 19 20  1  0
 19 21  2  0
 15 22  1  0
 22 23  1  1
 23 24  1  0
 24 25  1  0
 25 26  1  6
 26 27  1  0
 25 28  1  0
 28 29  1  0
 22 30  1  0
  8 31  2  0
 31  4  1  0
 14  9  1  0
 21 15  1  0
 29 22  1  0
 30 12  1  0
M  END
$$$$
