
     RDKit          3D

 31 33  0  0  0  0  0  0  0  0999 V2000
  -34.3032   12.3781  -19.1076 O   0  0  0  0  0  0  0  0  0  0  0  0
  -33.8389   11.3722  -19.6650 C   0  0  0  0  0  0  0  0  0  0  0  0
  -32.6292   11.4683  -20.3380 N   0  0  0  0  0  0  0  0  0  0  0  0
  -31.3661   11.8270  -19.8954 N   0  0  0  0  0  0  0  0  0  0  0  0
  -30.8338   13.0969  -19.6228 C   0  0  0  0  0  0  0  0  0  0  0  0
  -31.5224   13.9197  -19.0079 O   0  0  0  0  0  0  0  0  0  0  0  0
  -29.4727   13.5101  -20.0377 C   0  0  0  0  0  0  0  0  0  0  0  0
  -28.9733   14.7747  -19.9153 C   0  0  0  0  0  0  0  0  0  0  0  0
  -27.6992   15.1415  -20.3084 C   0  0  0  0  0  0  0  0  0  0  0  0
  -26.8969   14.1668  -20.8533 C   0  0  0  0  0  0  0  0  0  0  0  0
  -25.5107   14.5527  -21.2842 C   0  0  0  0  0  0  0  0  0  0  0  0
  -25.2042   13.8358  -22.5095 N   0  0  0  0  0  0  0  0  0  0  0  0
  -24.4971   14.9526  -23.6197 S   0  0  0  0  0  6  0  0  0  0  0  0
  -24.0230   14.1603  -24.8165 O   0  0  0  0  0  0  0  0  0  0  0  0
  -25.4702   16.0102  -24.0421 O   0  0  0  0  0  0  0  0  0  0  0  0
  -23.1105   15.6690  -22.8100 C   0  0  0  0  0  0  0  0  0  0  0  0
  -21.8480   15.1225  -22.8972 C   0  0  0  0  0  0  0  0  0  0  0  0
  -20.7822   15.7103  -22.2493 C   0  0  0  0  0  0  0  0  0  0  0  0
  -20.9611   16.8603  -21.4994 C   0  0  0  0  0  0  0  0  0  0  0  0
  -19.8840   17.4065  -20.8775 F   0  0  0  0  0  0  0  0  0  0  0  0
  -22.2205   17.4284  -21.3966 C   0  0  0  0  0  0  0  0  0  0  0  0
  -22.4397   18.8816  -20.4474 Cl  0  0  0  0  0  0  0  0  0  0  0  0
  -23.2567   16.8152  -22.0553 C   0  0  0  0  0  0  0  0  0  0  0  0
  -27.3378   12.8802  -21.0033 C   0  0  0  0  0  0  0  0  0  0  0  0
  -28.6304   12.5557  -20.5928 C   0  0  0  0  0  0  0  0  0  0  0  0
  -34.5774   10.1140  -19.5984 C   0  0  0  0  0  0  0  0  0  0  0  0
  -33.8588    8.9096  -19.5842 C   0  0  0  0  0  0  0  0  0  0  0  0
  -34.5164    7.7169  -19.5224 C   0  0  0  0  0  0  0  0  0  0  0  0
  -35.8912    7.6122  -19.4710 C   0  0  0  0  0  0  0  0  0  0  0  0
  -36.5938    8.7937  -19.4850 C   0  0  0  0  0  0  0  0  0  0  0  0
  -35.9452   10.0396  -19.5482 C   0  0  0  0  0  0  0  0  0  0  0  0
  1  2  2  0
  2  3  1  0
  3  4  1  0
  4  5  1  0
  5  6  2  0
  5  7  1  0
  7  8  2  0
  8  9  1  0
  9 10  2  0
 10 11  1  0
 11 12  1  0
 12 13  1  0
 13 14  2  0
 13 15  2  0
 13 16  1  0
 16 17  2  0
 17 18  1  0
 18 19  2  0
 19 20  1  0
 19 21  1  0
 21 22  1  0
 21 23  2  0
 10 24  1  0
 24 25  2  0
  2 26  1  0
 26 27  2  0
 27 28  1  0
 28 29  2  0
 29 30  1  0
 30 31  2  0
 25  7  1  0
 31 26  1  0
 23 16  1  0
M  END
$$$$
