
     RDKit          3D

 35 38  0  0  0  0  0  0  0  0999 V2000
  -22.8494   36.7761  -20.6140 C   0  0  0  0  0  0  0  0  0  0  0  0
  -22.5603   38.2125  -20.8536 C   0  0  0  0  0  0  0  0  0  0  0  0
  -23.4088   39.2015  -21.1786 N   0  0  0  0  0  0  0  0  0  0  0  0
  -22.7868   40.3171  -21.3039 O   0  0  0  0  0  0  0  0  0  0  0  0
  -21.4720   40.1639  -21.0729 C   0  0  0  0  0  0  0  0  0  0  0  0
  -20.4717   41.2008  -21.1251 C   0  0  0  0  0  0  0  0  0  0  0  0
  -20.3140   41.9832  -22.2233 C   0  0  0  0  0  0  0  0  0  0  0  0
  -19.3121   42.9596  -22.2045 C   0  0  0  0  0  0  0  0  0  0  0  0
  -18.4917   43.1502  -21.1210 C   0  0  0  0  0  0  0  0  0  0  0  0
  -17.4588   44.1784  -21.1501 C   0  0  0  0  0  0  0  0  0  0  0  0
  -16.1850   43.8919  -20.6866 C   0  0  0  0  0  0  0  0  0  0  0  0
  -15.1776   44.8552  -20.7026 C   0  0  0  0  0  0  0  0  0  0  0  0
  -15.4164   46.1222  -21.1797 C   0  0  0  0  0  0  0  0  0  0  0  0
  -14.3093   47.1132  -21.1736 C   0  0  0  0  0  0  0  0  0  0  0  0
  -14.7872   48.3379  -20.4795 C   0  0  0  0  0  0  0  0  0  0  0  0
  -15.2968   48.2757  -19.3100 O   0  0  0  0  0  0  0  0  0  0  0  0
  -14.7179   49.6050  -21.0335 O   0  0  0  0  0  0  0  0  0  0  0  0
  -16.6831   46.4043  -21.6395 C   0  0  0  0  0  0  0  0  0  0  0  0
  -17.6938   45.4505  -21.6275 C   0  0  0  0  0  0  0  0  0  0  0  0
  -18.6518   42.3567  -20.0060 C   0  0  0  0  0  0  0  0  0  0  0  0
  -19.6550   41.3818  -20.0304 C   0  0  0  0  0  0  0  0  0  0  0  0
  -21.3085   38.8549  -20.7887 C   0  0  0  0  0  0  0  0  0  0  0  0
  -20.1520   38.1060  -20.4413 N   0  0  0  0  0  0  0  0  0  0  0  0
  -19.5321   37.2119  -21.3721 C   0  0  0  0  0  0  0  0  0  0  0  0
  -20.1442   36.9716  -22.4173 O   0  0  0  0  0  0  0  0  0  0  0  0
  -18.3000   36.6276  -21.1346 O   0  0  0  0  0  0  0  0  0  0  0  0
  -18.0786   35.2233  -21.1650 C   0  0  2  0  0  0  0  0  0  0  0  0
  -16.6428   34.9085  -20.7243 C   0  0  0  0  0  0  0  0  0  0  0  0
  -18.1981   34.6650  -22.5363 C   0  0  0  0  0  0  0  0  0  0  0  0
  -17.7686   35.3864  -23.6444 C   0  0  0  0  0  0  0  0  0  0  0  0
  -17.8669   34.9021  -24.9217 C   0  0  0  0  0  0  0  0  0  0  0  0
  -18.4111   33.6467  -25.1550 C   0  0  0  0  0  0  0  0  0  0  0  0
  -18.8399   32.9227  -24.0652 C   0  0  0  0  0  0  0  0  0  0  0  0
  -18.7357   33.4215  -22.7811 C   0  0  0  0  0  0  0  0  0  0  0  0
  -19.2961   32.4613  -21.4205 Cl  0  0  0  0  0  0  0  0  0  0  0  0
  1  2  1  0
  2  3  2  0
  3  4  1  0
  4  5  1  0
  5  6  1  0
  6  7  2  0
  7  8  1  0
  8  9  2  0
  9 10  1  0
 10 11  2  0
 11 12  1  0
 12 13  2  0
 13 14  1  0
 14 15  1  0
 15 16  2  0
 15 17  1  0
 13 18  1  0
 18 19  2  0
  9 20  1  0
 20 21  2  0
  5 22  2  0
 22 23  1  0
 23 24  1  0
 24 25  2  0
 24 26  1  0
 26 27  1  0
 27 28  1  6
 27 29  1  0
 29 30  2  0
 30 31  1  0
 31 32  2  0
 32 33  1  0
 33 34  2  0
 34 35  1  0
 22  2  1  0
 34 29  1  0
 21  6  1  0
 19 10  1  0
M  END
$$$$
