
     RDKit          3D

 23 25  0  0  0  0  0  0  0  0999 V2000
    3.9048   19.9202  -21.4363 O   0  0  0  0  0  0  0  0  0  0  0  0
    3.5478   19.6973  -20.2273 C   0  0  0  0  0  0  0  0  0  0  0  0
    3.6660   20.8172  -19.3314 C   0  0  0  0  0  0  0  0  0  0  0  0
    4.6719   20.9339  -18.3723 C   0  0  0  0  0  0  0  0  0  0  0  0
    4.7580   22.0094  -17.5252 C   0  0  0  0  0  0  0  0  0  0  0  0
    3.8560   23.0334  -17.5742 C   0  0  0  0  0  0  0  0  0  0  0  0
    3.9865   24.3926  -16.4829 Cl  0  0  0  0  0  0  0  0  0  0  0  0
    2.8302   22.9591  -18.5214 C   0  0  0  0  0  0  0  0  0  0  0  0
    2.7584   21.8800  -19.3587 C   0  0  0  0  0  0  0  0  0  0  0  0
    3.0903   18.4340  -19.8918 N   0  0  0  0  0  0  0  0  0  0  0  0
    2.9187   17.4410  -20.9319 C   0  0  0  0  0  0  0  0  0  0  0  0
    1.5911   17.4578  -21.5436 C   0  0  0  0  0  0  0  0  0  0  0  0
    0.6123   16.6160  -21.0848 C   0  0  0  0  0  0  0  0  0  0  0  0
   -0.6700   16.5889  -21.6143 C   0  0  0  0  0  0  0  0  0  0  0  0
   -0.9401   17.4787  -22.6674 C   0  0  0  0  0  0  0  0  0  0  0  0
    0.0218   18.3252  -23.1382 C   0  0  0  0  0  0  0  0  0  0  0  0
    1.2877   18.3090  -22.5713 C   0  0  0  0  0  0  0  0  0  0  0  0
    2.7681   18.1119  -18.5145 C   0  0  0  0  0  0  0  0  0  0  0  0
    3.9197   18.0350  -17.5884 C   0  0  0  0  0  0  0  0  0  0  0  0
    3.6791   18.7288  -16.2949 C   0  0  0  0  0  0  0  0  0  0  0  0
    2.3822   18.3458  -15.6634 C   0  0  0  0  0  0  0  0  0  0  0  0
    1.2280   18.5196  -16.6181 C   0  0  0  0  0  0  0  0  0  0  0  0
    1.7618   19.1147  -17.9294 C   0  0  0  0  0  0  0  0  0  0  0  0
  1  2  2  0
  2  3  1  0
  3  4  2  0
  4  5  1  0
  5  6  2  0
  6  7  1  0
  6  8  1  0
  8  9  2  0
  2 10  1  0
 10 11  1  0
 11 12  1  0
 12 13  2  0
 13 14  1  0
 14 15  2  0
 15 16  1  0
 16 17  2  0
 10 18  1  0
 18 19  1  0
 19 20  1  0
 20 21  1  0
 21 22  1  0
 22 23  1  0
  9  3  1  0
 17 12  1  0
 23 18  1  0
M  END
$$$$
