
     RDKit          3D

 24 25  0  0  0  0  0  0  0  0999 V2000
   -9.2839   18.3331  -44.7775 C   0  0  0  0  0  0  0  0  0  0  0  0
  -10.2869   19.3846  -44.3400 C   0  0  0  0  0  0  0  0  0  0  0  0
  -11.1767   19.8105  -45.4898 C   0  0  0  0  0  0  0  0  0  0  0  0
   -9.6021   20.5881  -43.7408 C   0  0  0  0  0  0  0  0  0  0  0  0
  -11.1522   18.7658  -43.3133 C   0  0  0  0  0  0  0  0  0  0  0  0
  -12.4925   18.5825  -43.5829 C   0  0  0  0  0  0  0  0  0  0  0  0
  -13.3070   18.0057  -42.6301 C   0  0  0  0  0  0  0  0  0  0  0  0
  -12.7759   17.6156  -41.4129 C   0  0  0  0  0  0  0  0  0  0  0  0
  -13.6959   16.9936  -40.4075 C   0  0  0  0  0  0  0  0  0  0  0  0
  -13.7427   18.1011  -38.9746 S   0  0  0  0  0  0  0  0  0  0  0  0
  -15.3623   17.9166  -38.2199 C   0  0  0  0  0  0  0  0  0  0  0  0
  -16.4399   17.4634  -38.9456 C   0  0  0  0  0  0  0  0  0  0  0  0
  -17.6517   17.3244  -38.3846 N   0  0  0  0  0  0  0  0  0  0  0  0
  -17.8802   17.6129  -37.1098 N   0  0  0  0  0  0  0  0  0  0  0  0
  -19.1837   17.4657  -36.4981 C   0  0  0  0  0  0  0  0  0  0  0  0
  -20.0614   16.4779  -37.2123 C   0  0  0  0  0  0  0  0  0  0  0  0
  -18.9787   16.9547  -35.0716 C   0  0  0  0  0  0  0  0  0  0  0  0
  -19.8989   18.7929  -36.3726 C   0  0  0  0  0  0  0  0  0  0  0  0
  -16.8399   18.0566  -36.3866 C   0  0  0  0  0  0  0  0  0  0  0  0
  -17.0303   18.3370  -35.1758 O   0  0  0  0  0  0  0  0  0  0  0  0
  -15.5696   18.2256  -36.8880 C   0  0  0  0  0  0  0  0  0  0  0  0
  -14.2250   18.7985  -35.9554 Cl  0  0  0  0  0  0  0  0  0  0  0  0
  -11.4405   17.7989  -41.1459 C   0  0  0  0  0  0  0  0  0  0  0  0
  -10.6458   18.3688  -42.0926 C   0  0  0  0  0  0  0  0  0  0  0  0
  1  2  1  0
  2  3  1  0
  2  4  1  0
  2  5  1  0
  5  6  2  0
  6  7  1  0
  7  8  2  0
  8  9  1  0
  9 10  1  0
 10 11  1  0
 11 12  1  0
 12 13  2  0
 13 14  1  0
 14 15  1  0
 15 16  1  0
 15 17  1  0
 15 18  1  0
 14 19  1  0
 19 20  2  0
 19 21  1  0
 21 22  1  0
  8 23  1  0
 23 24  2  0
 24  5  1  0
 21 11  2  0
M  END
$$$$
