
     RDKit          3D

 42 47  0  0  0  0  0  0  0  0999 V2000
  -17.2695   42.8512  -17.3837 C   0  0  0  0  0  0  0  0  0  0  0  0
  -16.5838   43.2440  -18.5465 O   0  0  0  0  0  0  0  0  0  0  0  0
  -17.2149   43.3264  -19.7952 C   0  0  0  0  0  0  0  0  0  0  0  0
  -17.4697   44.5325  -20.4150 C   0  0  0  0  0  0  0  0  0  0  0  0
  -18.0939   44.6010  -21.6497 C   0  0  0  0  0  0  0  0  0  0  0  0
  -18.3967   45.8394  -22.3232 C   0  0  0  0  0  0  0  0  0  0  0  0
  -19.2167   45.7388  -23.3022 O   0  0  0  0  0  0  0  0  0  0  0  0
  -17.9135   47.1148  -22.0442 N   0  0  0  0  0  0  0  0  0  0  0  0
  -17.9177   47.6595  -20.7172 C   0  0  0  0  0  0  0  0  0  0  0  0
  -18.0427   49.1707  -20.7328 C   0  0  0  0  0  0  0  0  0  0  0  0
  -18.8836   49.6146  -21.8842 C   0  0  0  0  0  0  0  0  0  0  0  0
  -19.1061   51.0089  -21.9567 N   0  0  0  0  0  0  0  0  0  0  0  0
  -20.0238   51.4880  -22.9263 C   0  0  0  0  0  0  0  0  0  0  0  0
  -19.9678   53.0225  -22.9978 C   0  0  0  0  0  0  0  0  0  0  0  0
  -19.8962   53.4578  -21.6099 N   0  0  0  0  0  0  0  0  0  0  0  0
  -20.2696   54.8253  -21.4182 C   0  0  0  0  0  0  0  0  0  0  0  0
  -18.6348   53.1306  -20.9897 C   0  0  0  0  0  0  0  0  0  0  0  0
  -18.0317   51.8680  -21.5970 C   0  0  0  0  0  0  0  0  0  0  0  0
  -18.4197   49.0962  -23.2287 C   0  0  0  0  0  0  0  0  0  0  0  0
  -17.3728   48.0033  -23.0824 C   0  0  0  0  0  0  0  0  0  0  0  0
  -18.4872   43.4334  -22.3104 C   0  0  0  0  0  0  0  0  0  0  0  0
  -18.2208   42.2419  -21.6691 C   0  0  0  0  0  0  0  0  0  0  0  0
  -17.6028   42.1771  -20.4446 C   0  0  0  0  0  0  0  0  0  0  0  0
  -17.3719   40.9249  -19.8235 N   0  0  0  0  0  0  0  0  0  0  0  0
  -18.2667   39.8609  -20.0943 C   0  0  0  0  0  0  0  0  0  0  0  0
  -18.6495   38.9782  -19.1495 N   0  0  0  0  0  0  0  0  0  0  0  0
  -19.5013   37.9674  -19.4240 C   0  0  0  0  0  0  0  0  0  0  0  0
  -20.0068   37.8085  -20.6876 C   0  0  0  0  0  0  0  0  0  0  0  0
  -19.6122   38.7129  -21.6503 C   0  0  0  0  0  0  0  0  0  0  0  0
  -18.7617   39.7050  -21.3313 N   0  0  0  0  0  0  0  0  0  0  0  0
  -19.9804   38.7673  -23.0466 N   0  0  0  0  0  0  0  0  0  0  0  0
  -19.8066   40.0216  -23.7187 C   0  0  0  0  0  0  0  0  0  0  0  0
  -20.4966   37.6852  -23.8169 C   0  0  0  0  0  0  0  0  0  0  0  0
  -20.3396   37.8906  -25.1659 C   0  0  0  0  0  0  0  0  0  0  0  0
  -20.7702   36.9618  -26.1071 C   0  0  0  0  0  0  0  0  0  0  0  0
  -21.3750   35.7924  -25.7094 C   0  0  0  0  0  0  0  0  0  0  0  0
  -21.5385   35.5746  -24.3581 C   0  0  0  0  0  0  0  0  0  0  0  0
  -21.1076   36.5032  -23.4318 C   0  0  0  0  0  0  0  0  0  0  0  0
  -21.3544   36.1188  -22.0427 C   0  0  0  0  0  0  0  0  0  0  0  0
  -22.0886   35.1082  -21.9015 O   0  0  0  0  0  0  0  0  0  0  0  0
  -20.8940   36.7079  -20.8244 N   0  0  0  0  0  0  0  0  0  0  0  0
  -21.3601   36.1548  -19.5692 C   0  0  0  0  0  0  0  0  0  0  0  0
  1  2  1  0
  2  3  1  0
  3  4  2  0
  4  5  1  0
  5  6  1  0
  6  7  2  0
  6  8  1  0
  8  9  1  0
  9 10  1  0
 10 11  1  0
 11 12  1  0
 12 13  1  0
 13 14  1  0
 14 15  1  0
 15 16  1  0
 15 17  1  0
 17 18  1  0
 11 19  1  0
 19 20  1  0
  5 21  2  0
 21 22  1  0
 22 23  2  0
 23 24  1  0
 24 25  1  0
 25 26  2  0
 26 27  1  0
 27 28  2  0
 28 29  1  0
 29 30  2  0
 29 31  1  0
 31 32  1  0
 31 33  1  0
 33 34  2  0
 34 35  1  0
 35 36  2  0
 36 37  1  0
 37 38  2  0
 38 39  1  0
 39 40  2  0
 39 41  1  0
 41 42  1  0
 23  3  1  0
 30 25  1  0
 38 33  1  0
 20  8  1  0
 41 28  1  0
 18 12  1  0
M  END
$$$$
