
     RDKit          3D

 36 38  0  0  0  0  0  0  0  0999 V2000
  -29.6919    2.5660  -28.9016 C   0  0  0  0  0  0  0  0  0  0  0  0
  -30.1814    3.8222  -28.6857 C   0  0  0  0  0  0  0  0  0  0  0  0
  -29.5663    4.9428  -29.2619 C   0  0  0  0  0  0  0  0  0  0  0  0
  -30.1000    6.2896  -28.9965 C   0  0  0  0  0  0  0  0  0  0  0  0
  -29.7754    6.8475  -27.7176 N   0  0  0  0  0  0  0  0  0  0  0  0
  -30.2279    5.9056  -26.6940 C   0  0  0  0  0  0  0  0  0  0  0  0
  -31.0672    6.5856  -25.6469 C   0  0  0  0  0  0  0  0  0  0  0  0
  -30.4922    6.3139  -24.2909 C   0  0  0  0  0  0  0  0  0  0  0  0
  -30.6536    7.4223  -23.3697 N   0  0  0  0  0  0  0  0  0  0  0  0
  -29.7010    8.4874  -23.6273 C   0  0  0  0  0  0  0  0  0  0  0  0
  -28.8437    8.7831  -22.4259 C   0  0  0  0  0  0  0  0  0  0  0  0
  -27.4460    8.5401  -22.6431 N   0  0  0  0  0  0  0  0  0  0  0  0
  -26.8056    9.5238  -23.4823 C   0  0  0  0  0  0  0  0  0  0  0  0
  -26.3670    8.8597  -24.7491 C   0  0  0  0  0  0  0  0  0  0  0  0
  -26.8832    9.6043  -25.9777 C   0  0  0  0  0  0  0  0  0  0  0  0
  -26.6936    8.7226  -27.0990 N   0  0  0  0  0  0  0  0  0  0  0  0
  -27.9517    8.5073  -27.7992 C   0  0  0  0  0  0  0  0  0  0  0  0
  -28.3594    7.0614  -27.6060 C   0  0  0  0  0  0  0  0  0  0  0  0
  -28.4585    4.7222  -30.0458 C   0  0  0  0  0  0  0  0  0  0  0  0
  -27.9870    3.4248  -30.2442 C   0  0  0  0  0  0  0  0  0  0  0  0
  -28.5809    2.3170  -29.6854 C   0  0  0  0  0  0  0  0  0  0  0  0
  -28.1239    0.9449  -29.8650 C   0  0  0  0  0  0  0  0  0  0  0  0
  -26.7465    0.8126  -30.3025 N   0  0  0  0  0  0  0  0  0  0  0  0
  -26.6456    1.3731  -31.6124 C   0  0  0  0  0  0  0  0  0  0  0  0
  -25.2602    1.2695  -32.2058 C   0  0  0  0  0  0  0  0  0  0  0  0
  -25.0052   -0.0691  -32.8550 C   0  0  0  0  0  0  0  0  0  0  0  0
  -23.5926   -0.0958  -33.2658 N   0  0  0  0  0  0  0  0  0  0  0  0
  -22.8145    0.1926  -32.1296 C   0  0  0  0  0  0  0  0  0  0  0  0
  -21.4096   -0.3356  -32.0978 C   0  0  0  0  0  0  0  0  0  0  0  0
  -20.8503    0.2645  -30.8689 N   0  0  0  0  0  0  0  0  0  0  0  0
  -20.9189   -0.5873  -29.7420 C   0  0  0  0  0  0  0  0  0  0  0  0
  -22.0371   -0.4386  -28.8027 C   0  0  0  0  0  0  0  0  0  0  0  0
  -22.6419    0.9078  -28.6479 C   0  0  0  0  0  0  0  0  0  0  0  0
  -23.8893    0.8747  -27.9616 N   0  0  0  0  0  0  0  0  0  0  0  0
  -24.9981    0.3216  -28.6509 C   0  0  0  0  0  0  0  0  0  0  0  0
  -25.8919    1.3654  -29.3124 C   0  0  0  0  0  0  0  0  0  0  0  0
  1  2  2  0
  2  3  1  0
  3  4  1  0
  4  5  1  0
  5  6  1  0
  6  7  1  0
  7  8  1  0
  8  9  1  0
  9 10  1  0
 10 11  1  0
 11 12  1  0
 12 13  1  0
 13 14  1  0
 14 15  1  0
 15 16  1  0
 16 17  1  0
 17 18  1  0
  3 19  2  0
 19 20  1  0
 20 21  2  0
 21 22  1  0
 22 23  1  0
 23 24  1  0
 24 25  1  0
 25 26  1  0
 26 27  1  0
 27 28  1  0
 28 29  1  0
 29 30  1  0
 30 31  1  0
 31 32  1  0
 32 33  1  0
 33 34  1  0
 34 35  1  0
 35 36  1  0
 21  1  1  0
 36 23  1  0
 18  5  1  0
M  END
$$$$
