
     RDKit          3D

 19 21  0  0  0  0  0  0  0  0999 V2000
  -28.2619   29.5919  -37.6152 C   0  0  0  0  0  0  0  0  0  0  0  0
  -28.2761   28.2785  -38.1463 O   0  0  0  0  0  0  0  0  0  0  0  0
  -27.6968   27.2577  -37.4254 C   0  0  0  0  0  0  0  0  0  0  0  0
  -28.2779   26.0091  -37.4390 C   0  0  0  0  0  0  0  0  0  0  0  0
  -29.3540   25.5366  -38.0386 O   0  0  0  0  0  0  0  0  0  0  0  0
  -29.5058   24.2671  -37.7476 C   0  0  0  0  0  0  0  0  0  0  0  0
  -28.4587   23.8881  -36.9024 C   0  0  0  0  0  0  0  0  0  0  0  0
  -27.6783   25.0045  -36.7092 C   0  0  0  0  0  0  0  0  0  0  0  0
  -26.5255   25.2632  -35.9896 C   0  0  0  0  0  0  0  0  0  0  0  0
  -25.9281   24.2625  -35.2625 O   0  0  0  0  0  0  0  0  0  0  0  0
  -25.0780   23.3587  -35.9855 C   0  0  0  0  0  0  0  0  0  0  0  0
  -25.9430   26.5256  -35.9793 C   0  0  0  0  0  0  0  0  0  0  0  0
  -24.7972   26.8300  -35.2790 C   0  0  0  0  0  0  0  0  0  0  0  0
  -24.2338   25.9393  -34.6098 O   0  0  0  0  0  0  0  0  0  0  0  0
  -24.2514   28.0961  -35.2954 C   0  0  0  0  0  0  0  0  0  0  0  0
  -24.9115   29.0615  -36.0550 C   0  0  0  0  0  0  0  0  0  0  0  0
  -24.3527   30.4556  -36.1023 C   0  0  0  0  0  0  0  0  0  0  0  0
  -26.0003   28.7387  -36.7101 O   0  0  0  0  0  0  0  0  0  0  0  0
  -26.5347   27.5387  -36.7064 C   0  0  0  0  0  0  0  0  0  0  0  0
  1  2  1  0
  2  3  1  0
  3  4  2  0
  4  5  1  0
  5  6  1  0
  6  7  2  0
  7  8  1  0
  8  9  2  0
  9 10  1  0
 10 11  1  0
  9 12  1  0
 12 13  1  0
 13 14  2  0
 13 15  1  0
 15 16  2  0
 16 17  1  0
 16 18  1  0
 18 19  1  0
 19  3  1  0
  8  4  1  0
 19 12  2  0
M  END
$$$$
