
     RDKit          3D

 22 22  0  0  0  0  0  0  0  0999 V2000
  -17.6289   37.1316  -23.2816 C   0  0  0  0  0  0  0  0  0  0  0  0
  -18.8193   37.7398  -22.5850 C   0  0  1  0  0  0  0  0  0  0  0  0
  -19.6423   36.7823  -22.0236 N   0  0  0  0  0  0  0  0  0  0  0  0
  -20.4133   35.8494  -22.6422 C   0  0  0  0  0  0  0  0  0  0  0  0
  -19.9396   34.6643  -23.3698 C   0  0  0  0  0  0  0  0  0  0  0  0
  -19.1597   33.6850  -22.5766 C   0  0  0  0  0  0  0  0  0  0  0  0
  -19.8269   32.7081  -21.8261 C   0  0  0  0  0  0  0  0  0  0  0  0
  -19.1650   31.7589  -21.0830 C   0  0  0  0  0  0  0  0  0  0  0  0
  -17.7828   31.7397  -21.0536 C   0  0  0  0  0  0  0  0  0  0  0  0
  -17.0967   30.7880  -20.3082 O   0  0  0  0  0  0  0  0  0  0  0  0
  -17.1018   32.6882  -21.7829 C   0  0  0  0  0  0  0  0  0  0  0  0
  -17.7942   33.6337  -22.5236 C   0  0  0  0  0  0  0  0  0  0  0  0
  -18.1971   38.6367  -21.5088 C   0  0  1  0  0  0  0  0  0  0  0  0
  -17.3641   39.5255  -22.2478 O   0  0  0  0  0  0  0  0  0  0  0  0
  -19.1274   39.4903  -20.7944 C   0  0  0  0  0  0  0  0  0  0  0  0
  -20.4823   39.3435  -20.7268 C   0  0  0  0  0  0  0  0  0  0  0  0
  -21.2884   40.2273  -20.0035 C   0  0  0  0  0  0  0  0  0  0  0  0
  -20.7374   41.2865  -19.3286 C   0  0  0  0  0  0  0  0  0  0  0  0
  -21.5144   42.1836  -18.5991 O   0  0  0  0  0  0  0  0  0  0  0  0
  -19.3759   41.4537  -19.3828 C   0  0  0  0  0  0  0  0  0  0  0  0
  -18.5807   40.5732  -20.1023 C   0  0  0  0  0  0  0  0  0  0  0  0
  -19.3050   37.3513  -21.4363 Cl  0  0  0  0  0  0  0  0  0  0  0  0
  2  1  1  1
  2  3  1  0
  3  4  1  0
  4  5  1  0
  5  6  1  0
  6  7  2  0
  7  8  1  0
  8  9  2  0
  9 10  1  0
  9 11  1  0
 11 12  2  0
  2 13  1  0
 13 14  1  6
 13 15  1  0
 15 16  2  0
 16 17  1  0
 17 18  2  0
 18 19  1  0
 18 20  1  0
 20 21  2  0
 12  6  1  0
 21 15  1  0
M  END
$$$$
