
     RDKit          3D

 12 13  0  0  0  0  0  0  0  0999 V2000
  -19.2934   40.8473  -17.9016 O   0  0  0  0  0  0  0  0  0  0  0  0
  -18.4153   41.3057  -18.6815 C   0  0  0  0  0  0  0  0  0  0  0  0
  -18.4896   41.1953  -20.1505 C   0  0  0  0  0  0  0  0  0  0  0  0
  -17.3879   42.0795  -20.6851 C   0  0  0  0  0  0  0  0  0  0  0  0
  -16.7266   42.6413  -19.5253 N   0  0  0  0  0  0  0  0  0  0  0  0
  -15.7555   43.6744  -19.6075 C   0  0  0  0  0  0  0  0  0  0  0  0
  -14.7815   43.6865  -20.5962 C   0  0  0  0  0  0  0  0  0  0  0  0
  -13.8276   44.6719  -20.7030 C   0  0  0  0  0  0  0  0  0  0  0  0
  -13.8456   45.6956  -19.7785 C   0  0  0  0  0  0  0  0  0  0  0  0
  -14.7885   45.7347  -18.7763 C   0  0  0  0  0  0  0  0  0  0  0  0
  -15.7229   44.7225  -18.7133 C   0  0  0  0  0  0  0  0  0  0  0  0
  -17.2100   41.9988  -18.3842 N   0  0  0  0  0  0  0  0  0  0  0  0
  1  2  2  0
  2  3  1  0
  3  4  1  0
  4  5  1  0
  5  6  1  0
  6  7  2  0
  7  8  1  0
  8  9  2  0
  9 10  1  0
 10 11  2  0
  5 12  1  0
 12  2  1  0
 11  6  1  0
M  END
$$$$
