
     RDKit          3D

 27 27  0  0  0  0  0  0  0  0999 V2000
  -22.3681   36.4630  -25.9204 C   0  0  0  0  0  0  0  0  0  0  0  0
  -23.4225   37.0510  -25.0266 C   0  0  0  0  0  0  0  0  0  0  0  0
  -23.0298   38.4086  -24.4765 C   0  0  1  0  0  0  0  0  0  0  0  0
  -24.1090   38.8711  -23.6381 N   0  0  0  0  0  0  0  0  0  0  0  0
  -21.7101   38.3243  -23.7659 C   0  0  0  0  0  0  0  0  0  0  0  0
  -21.2952   39.6023  -23.2235 N   0  0  0  0  0  0  0  0  0  0  0  0
  -20.0461   39.6504  -22.5245 C   0  0  0  0  0  0  0  0  0  0  0  0
  -19.2569   38.5322  -22.3650 C   0  0  0  0  0  0  0  0  0  0  0  0
  -18.0541   38.5875  -21.6908 C   0  0  0  0  0  0  0  0  0  0  0  0
  -17.6866   39.7836  -21.1957 N   0  0  0  0  0  0  0  0  0  0  0  0
  -18.4333   40.9001  -21.3322 C   0  0  0  0  0  0  0  0  0  0  0  0
  -17.9463   42.1568  -20.7569 C   0  0  0  0  0  0  0  0  0  0  0  0
  -16.7508   42.2427  -20.0805 C   0  0  0  0  0  0  0  0  0  0  0  0
  -16.2591   43.3915  -19.5286 C   0  0  0  0  0  0  0  0  0  0  0  0
  -14.9680   43.4285  -18.8124 C   0  0  0  0  0  0  0  0  0  0  0  0
  -13.8521   42.6555  -19.0720 C   0  0  0  0  0  0  0  0  0  0  0  0
  -12.8889   42.9963  -18.1949 N   0  0  0  0  0  0  0  0  0  0  0  0
  -13.3557   43.9490  -17.3988 N   0  0  0  0  0  0  0  0  0  0  0  0
  -12.6726   44.6129  -16.3155 C   0  0  0  0  0  0  0  0  0  0  0  0
  -14.6338   44.2279  -17.7641 C   0  0  0  0  0  0  0  0  0  0  0  0
  -17.0002   44.5465  -19.6508 C   0  0  0  0  0  0  0  0  0  0  0  0
  -18.2171   44.5009  -20.3290 C   0  0  0  0  0  0  0  0  0  0  0  0
  -18.6819   43.3165  -20.8749 C   0  0  0  0  0  0  0  0  0  0  0  0
  -19.9019   43.3588  -21.5331 O   0  0  0  0  0  0  0  0  0  0  0  0
  -19.5817   40.7979  -21.9880 N   0  0  0  0  0  0  0  0  0  0  0  0
  -18.3206   41.2906  -21.1687 Cl  0  0  0  0  0  0  0  0  0  0  0  0
  -18.3229   41.2886  -21.1708 Cl  0  0  0  0  0  0  0  0  0  0  0  0
  1  2  1  0
  2  3  1  0
  3  4  1  1
  3  5  1  0
  5  6  1  0
  6  7  1  0
  7  8  2  0
  8  9  1  0
  9 10  2  0
 10 11  1  0
 11 12  1  0
 12 13  2  0
 13 14  1  0
 14 15  1  0
 15 16  1  0
 16 17  2  0
 17 18  1  0
 18 19  1  0
 18 20  1  0
 14 21  2  0
 21 22  1  0
 22 23  2  0
 23 24  1  0
 11 25  2  0
 25  7  1  0
 23 12  1  0
 20 15  2  0
M  END
$$$$
