
     RDKit          3D

 37 40  0  0  0  0  0  0  0  0999 V2000
  -13.4803   41.9173  -19.8106 C   0  0  0  0  0  0  0  0  0  0  0  0
  -14.7737   42.5769  -20.0701 C   0  0  0  0  0  0  0  0  0  0  0  0
  -15.8104   41.9151  -20.7362 C   0  0  0  0  0  0  0  0  0  0  0  0
  -17.0167   42.5005  -20.9884 C   0  0  0  0  0  0  0  0  0  0  0  0
  -18.0980   41.9804  -21.6118 O   0  0  0  0  0  0  0  0  0  0  0  0
  -18.2038   41.3839  -22.8451 C   0  0  0  0  0  0  0  0  0  0  0  0
  -19.5865   40.9077  -23.1211 C   0  0  0  0  0  0  0  0  0  0  0  0
  -19.7278   40.3279  -24.4917 C   0  0  0  0  0  0  0  0  0  0  0  0
  -20.8863   39.0491  -24.6138 S   0  0  0  0  0  6  0  0  0  0  0  0
  -22.4975   39.3905  -24.0479 C   0  0  0  0  0  0  0  0  0  0  0  0
  -20.3202   37.8443  -23.8541 O   0  0  0  0  0  0  0  0  0  0  0  0
  -20.9867   38.6560  -26.0925 O   0  0  0  0  0  0  0  0  0  0  0  0
  -17.1761   43.8294  -20.5409 C   0  0  0  0  0  0  0  0  0  0  0  0
  -16.1772   44.4708  -19.8982 C   0  0  0  0  0  0  0  0  0  0  0  0
  -16.3874   45.8802  -19.4399 C   0  0  0  0  0  0  0  0  0  0  0  0
  -14.9711   43.8523  -19.6576 C   0  0  0  0  0  0  0  0  0  0  0  0
  -13.9402   44.6354  -18.9467 C   0  0  0  0  0  0  0  0  0  0  0  0
  -13.1095   45.5149  -19.6289 C   0  0  0  0  0  0  0  0  0  0  0  0
  -12.1474   46.2453  -18.9631 C   0  0  0  0  0  0  0  0  0  0  0  0
  -12.0010   46.1065  -17.5993 C   0  0  0  0  0  0  0  0  0  0  0  0
  -12.8105   45.2413  -16.8935 C   0  0  0  0  0  0  0  0  0  0  0  0
  -12.5989   45.1403  -15.4257 C   0  0  0  0  0  0  0  0  0  0  0  0
  -11.9856   46.3470  -15.0117 O   0  0  0  0  0  0  0  0  0  0  0  0
  -12.4820   46.9912  -13.8770 C   0  0  0  0  0  0  0  0  0  0  0  0
  -11.6308   47.5330  -12.9383 C   0  0  0  0  0  0  0  0  0  0  0  0
  -12.1233   48.1688  -11.8182 C   0  0  0  0  0  0  0  0  0  0  0  0
  -13.4945   48.2743  -11.6163 C   0  0  0  0  0  0  0  0  0  0  0  0
  -14.3796   47.7412  -12.5394 C   0  0  0  0  0  0  0  0  0  0  0  0
  -13.8337   47.1161  -13.6413 C   0  0  0  0  0  0  0  0  0  0  0  0
  -15.6965   47.9747  -12.1142 O   0  0  0  0  0  0  0  0  0  0  0  0
  -15.6166   48.0740  -10.7051 C   0  0  0  0  0  0  0  0  0  0  0  0
  -14.3295   48.8783  -10.5461 C   0  0  1  0  0  0  0  0  0  0  0  0
  -13.6870   48.6266   -9.2078 C   0  0  0  0  0  0  0  0  0  0  0  0
  -14.5075   49.1790   -8.1197 C   0  0  0  0  0  0  0  0  0  0  0  0
  -14.4199   48.6914   -6.9614 O   0  0  0  0  0  0  0  0  0  0  0  0
  -15.3809   50.2250   -8.3230 O   0  0  0  0  0  0  0  0  0  0  0  0
  -13.7520   44.5349  -17.5870 C   0  0  0  0  0  0  0  0  0  0  0  0
  1  2  1  0
  2  3  2  0
  3  4  1  0
  4  5  1  0
  5  6  1  0
  6  7  1  0
  7  8  1  0
  8  9  1  0
  9 10  1  0
  9 11  2  0
  9 12  2  0
  4 13  2  0
 13 14  1  0
 14 15  1  0
 14 16  2  0
 16 17  1  0
 17 18  2  0
 18 19  1  0
 19 20  2  0
 20 21  1  0
 21 22  1  0
 22 23  1  0
 23 24  1  0
 24 25  2  0
 25 26  1  0
 26 27  2  0
 27 28  1  0
 28 29  2  0
 28 30  1  0
 30 31  1  0
 31 32  1  0
 32 33  1  1
 33 34  1  0
 34 35  2  0
 34 36  1  0
 21 37  2  0
 16  2  1  0
 37 17  1  0
 29 24  1  0
 32 27  1  0
M  END
$$$$
