
     RDKit          3D

 39 43  0  0  0  0  0  0  0  0999 V2000
  -19.9584   42.5940  -28.0764 C   0  0  0  0  0  0  0  0  0  0  0  0
  -20.9425   43.0091  -27.1634 O   0  0  0  0  0  0  0  0  0  0  0  0
  -21.0722   42.5515  -25.8648 C   0  0  0  0  0  0  0  0  0  0  0  0
  -20.2662   41.6687  -25.4773 O   0  0  0  0  0  0  0  0  0  0  0  0
  -22.1420   43.0951  -24.9536 C   0  0  0  0  0  0  0  0  0  0  0  0
  -21.9438   42.3875  -23.6216 C   0  0  2  0  0  0  0  0  0  0  0  0
  -22.8203   43.0350  -22.7171 O   0  0  0  0  0  0  0  0  0  0  0  0
  -20.5481   42.6758  -23.1786 C   0  0  0  0  0  0  0  0  0  0  0  0
  -20.3790   43.0469  -21.7387 C   0  0  0  0  0  0  0  0  0  0  0  0
  -18.9557   43.3285  -21.3364 C   0  0  0  0  0  0  0  0  0  0  0  0
  -18.9146   43.8791  -19.8974 C   0  0  0  0  0  0  0  0  0  0  0  0
  -20.2318   44.5625  -19.5943 C   0  0  0  0  0  0  0  0  0  0  0  0
  -17.7552   44.8405  -19.7495 C   0  0  0  0  0  0  0  0  0  0  0  0
  -18.7319   42.8272  -19.0040 O   0  0  0  0  0  0  0  0  0  0  0  0
  -22.2219   40.9515  -23.6761 C   0  0  0  0  0  0  0  0  0  0  0  0
  -23.4052   40.5859  -23.9845 O   0  0  0  0  0  0  0  0  0  0  0  0
  -21.3250   39.9468  -23.4258 O   0  0  0  0  0  0  0  0  0  0  0  0
  -21.5031   38.6252  -23.8570 C   0  0  2  0  0  0  0  0  0  0  0  0
  -22.6100   37.9128  -23.2414 C   0  0  0  0  0  0  0  0  0  0  0  0
  -23.8375   38.3748  -22.7566 O   0  0  0  0  0  0  0  0  0  0  0  0
  -25.0483   38.2025  -23.4585 C   0  0  0  0  0  0  0  0  0  0  0  0
  -22.2994   36.6283  -23.1796 C   0  0  0  0  0  0  0  0  0  0  0  0
  -20.9566   36.3764  -23.7496 C   0  0  2  0  0  0  0  0  0  0  0  0
  -20.9760   36.1282  -25.2289 C   0  0  0  0  0  0  0  0  0  0  0  0
  -20.3193   34.7757  -25.3996 C   0  0  0  0  0  0  0  0  0  0  0  0
  -20.4191   34.1877  -24.0330 C   0  0  0  0  0  0  0  0  0  0  0  0
  -20.2198   35.3321  -23.1287 N   0  0  0  0  0  0  0  0  0  0  0  0
  -20.6872   34.9113  -21.8457 C   0  0  0  0  0  0  0  0  0  0  0  0
  -20.8366   35.9824  -20.8214 C   0  0  0  0  0  0  0  0  0  0  0  0
  -19.9742   37.1728  -21.0618 C   0  0  0  0  0  0  0  0  0  0  0  0
  -19.2965   37.5587  -19.9168 C   0  0  0  0  0  0  0  0  0  0  0  0
  -18.4334   38.6331  -19.8729 C   0  0  0  0  0  0  0  0  0  0  0  0
  -18.2223   39.3749  -21.0245 C   0  0  0  0  0  0  0  0  0  0  0  0
  -18.8985   38.9892  -22.1652 C   0  0  0  0  0  0  0  0  0  0  0  0
  -19.7599   37.9152  -22.2047 C   0  0  0  0  0  0  0  0  0  0  0  0
  -20.3176   37.7596  -23.5498 C   0  0  2  0  0  0  0  0  0  0  0  0
  -17.3164   40.3832  -20.6889 O   0  0  0  0  0  0  0  0  0  0  0  0
  -16.6980   40.0790  -19.4538 C   0  0  0  0  0  0  0  0  0  0  0  0
  -17.6514   39.2099  -18.8720 O   0  0  0  0  0  0  0  0  0  0  0  0
  1  2  1  0
  2  3  1  0
  3  4  2  0
  3  5  1  0
  5  6  1  0
  6  7  1  1
  6  8  1  0
  8  9  1  0
  9 10  1  0
 10 11  1  0
 11 12  1  0
 11 13  1  0
 11 14  1  0
  6 15  1  0
 15 16  2  0
 15 17  1  0
 18 17  1  1
 18 19  1  0
 19 20  1  0
 20 21  1  0
 19 22  2  0
 22 23  1  0
 23 24  1  6
 24 25  1  0
 25 26  1  0
 26 27  1  0
 27 28  1  0
 28 29  1  0
 29 30  1  0
 30 31  2  0
 31 32  1  0
 32 33  2  0
 33 34  1  0
 34 35  2  0
 36 35  1  1
 33 37  1  0
 37 38  1  0
 38 39  1  0
 36 18  1  0
 27 23  1  0
 35 30  1  0
 36 23  1  0
 39 32  1  0
M  END
$$$$
