
     RDKit          3D

 55 60  0  0  0  0  0  0  0  0999 V2000
  -38.9369    6.2482  -13.1762 C   0  0  0  0  0  0  0  0  0  0  0  0
  -37.9613    6.7888  -14.1495 C   0  0  0  0  0  0  0  0  0  0  0  0
  -36.6951    7.3880  -13.7022 C   0  0  0  0  0  0  0  0  0  0  0  0
  -38.2608    6.7249  -15.4452 C   0  0  0  0  0  0  0  0  0  0  0  0
  -37.3606    7.1265  -16.5086 C   0  0  0  0  0  0  0  0  0  0  0  0
  -35.9513    6.7469  -16.3569 C   0  0  0  0  0  0  0  0  0  0  0  0
  -34.9573    7.0692  -17.3990 C   0  0  2  0  0  0  0  0  0  0  0  0
  -35.3998    6.2681  -18.6370 C   0  0  0  0  0  0  0  0  0  0  0  0
  -33.7470    6.4275  -17.0068 O   0  0  0  0  0  0  0  0  0  0  0  0
  -34.6168    8.4424  -17.7102 C   0  0  1  0  0  0  0  0  0  0  0  0
  -34.3802    9.1410  -16.2751 C   0  0  0  0  0  0  0  0  0  0  0  0
  -33.9205   10.5101  -16.6766 C   0  0  0  0  0  0  0  0  0  0  0  0
  -33.4126   10.4157  -18.0774 C   0  0  2  0  0  0  0  0  0  0  0  0
  -34.4632   11.0695  -18.9435 C   0  0  0  0  0  0  0  0  0  0  0  0
  -33.3384    8.9034  -18.2566 C   0  0  2  0  0  0  0  0  0  0  0  0
  -32.8717    8.6188  -19.6013 C   0  0  2  0  0  0  0  0  0  0  0  0
  -32.8422    7.2905  -20.0224 O   0  0  0  0  0  0  0  0  0  0  0  0
  -31.3809    9.1056  -19.6099 C   0  0  0  0  0  0  0  0  0  0  0  0
  -31.4664   10.6007  -19.5572 C   0  0  2  0  0  0  0  0  0  0  0  0
  -30.2170   11.2850  -20.0302 C   0  0  1  0  0  0  0  0  0  0  0  0
  -28.9659   10.6470  -19.5131 C   0  0  0  0  0  0  0  0  0  0  0  0
  -30.1787   11.0521  -21.5492 C   0  0  0  0  0  0  0  0  0  0  0  0
  -29.4821   12.0639  -22.3503 C   0  0  0  0  0  0  0  0  0  0  0  0
  -28.7413   13.1738  -21.7099 C   0  0  2  0  0  0  0  0  0  0  0  0
  -27.3850   12.7845  -21.6773 O   0  0  0  0  0  0  0  0  0  0  0  0
  -26.6624   13.3742  -22.7056 C   0  0  2  0  0  0  0  0  0  0  0  0
  -27.0906   12.9067  -23.9546 O   0  0  0  0  0  0  0  0  0  0  0  0
  -26.2919   13.5248  -24.9133 C   0  0  2  0  0  0  0  0  0  0  0  0
  -26.9861   13.4941  -26.2521 C   0  0  0  0  0  0  0  0  0  0  0  0
  -26.0432   13.0561  -27.1866 O   0  0  0  0  0  0  0  0  0  0  0  0
  -24.9665   12.7856  -24.9432 C   0  0  1  0  0  0  0  0  0  0  0  0
  -23.9643   13.7321  -25.1125 O   0  0  0  0  0  0  0  0  0  0  0  0
  -24.7472   12.0940  -23.6171 C   0  0  2  0  0  0  0  0  0  0  0  0
  -25.5392   10.9288  -23.5537 O   0  0  0  0  0  0  0  0  0  0  0  0
  -25.2023   13.0762  -22.5267 C   0  0  1  0  0  0  0  0  0  0  0  0
  -24.3810   14.2067  -22.7139 O   0  0  0  0  0  0  0  0  0  0  0  0
  -23.1161   13.9933  -22.1741 C   0  0  2  0  0  0  0  0  0  0  0  0
  -23.1065   13.9614  -20.8089 O   0  0  0  0  0  0  0  0  0  0  0  0
  -23.6087   15.0503  -20.1576 C   0  0  2  0  0  0  0  0  0  0  0  0
  -24.9397   14.6998  -19.5421 C   0  0  0  0  0  0  0  0  0  0  0  0
  -25.7226   15.8730  -19.6028 O   0  0  0  0  0  0  0  0  0  0  0  0
  -23.6983   16.2841  -21.0157 C   0  0  1  0  0  0  0  0  0  0  0  0
  -23.6137   17.3902  -20.1727 O   0  0  0  0  0  0  0  0  0  0  0  0
  -22.5495   16.3734  -21.9926 C   0  0  2  0  0  0  0  0  0  0  0  0
  -22.9016   17.3020  -22.9704 O   0  0  0  0  0  0  0  0  0  0  0  0
  -22.1986   15.0912  -22.6516 C   0  0  1  0  0  0  0  0  0  0  0  0
  -20.8526   14.7772  -22.3345 O   0  0  0  0  0  0  0  0  0  0  0  0
  -29.1578   13.5514  -20.3410 C   0  0  0  0  0  0  0  0  0  0  0  0
  -29.7236   14.9881  -20.4436 C   0  0  0  0  0  0  0  0  0  0  0  0
  -28.0466   13.6292  -19.3537 C   0  0  0  0  0  0  0  0  0  0  0  0
  -30.3442   12.7414  -19.8687 C   0  0  2  0  0  0  0  0  0  0  0  0
  -30.8895   13.2466  -18.5783 C   0  0  0  0  0  0  0  0  0  0  0  0
  -32.2809   12.5901  -18.4613 C   0  0  0  0  0  0  0  0  0  0  0  0
  -32.0613   11.0789  -18.2716 C   0  0  1  0  0  0  0  0  0  0  0  0
  -31.2725   10.9030  -17.0396 C   0  0  0  0  0  0  0  0  0  0  0  0
  1  2  1  0
  2  3  1  0
  2  4  2  3
  4  5  1  0
  5  6  1  0
  6  7  1  0
  7  8  1  6
  7  9  1  0
  7 10  1  0
 10 11  1  1
 11 12  1  0
 12 13  1  0
 13 14  1  6
 13 15  1  0
 15 16  1  6
 16 17  1  1
 16 18  1  0
 19 18  1  1
 19 20  1  0
 20 21  1  1
 20 22  1  0
 22 23  1  0
 23 24  1  0
 24 25  1  1
 26 25  1  1
 26 27  1  0
 27 28  1  0
 28 29  1  6
 29 30  1  0
 28 31  1  0
 31 32  1  1
 31 33  1  0
 33 34  1  6
 33 35  1  0
 35 36  1  6
 37 36  1  1
 37 38  1  0
 38 39  1  0
 39 40  1  6
 40 41  1  0
 39 42  1  0
 42 43  1  1
 42 44  1  0
 44 45  1  6
 44 46  1  0
 46 47  1  1
 24 48  1  0
 48 49  1  0
 48 50  1  0
 48 51  1  0
 51 52  1  1
 52 53  1  0
 53 54  1  0
 54 55  1  1
 15 10  1  0
 54 19  1  0
 54 13  1  0
 51 20  1  0
 35 26  1  0
 46 37  1  0
M  END
$$$$
