
     RDKit          3D

 17 19  0  0  0  0  0  0  0  0999 V2000
  -20.1610   33.3101  -22.9643 N   0  0  0  0  0  0  0  0  0  0  0  0
  -19.7123   34.6334  -22.7408 C   0  0  0  0  0  0  0  0  0  0  0  0
  -18.4640   34.7881  -22.5151 O   0  0  0  0  0  0  0  0  0  0  0  0
  -20.6401   35.8156  -22.7629 C   0  0  0  0  0  0  0  0  0  0  0  0
  -21.6008   35.6746  -21.6078 C   0  0  0  0  0  0  0  0  0  0  0  0
  -22.2807   36.9715  -21.2557 C   0  0  0  0  0  0  0  0  0  0  0  0
  -21.2116   37.8730  -20.6414 C   0  0  0  0  0  0  0  0  0  0  0  0
  -20.1453   38.0334  -21.6681 C   0  0  0  0  0  0  0  0  0  0  0  0
  -19.8866   37.0882  -22.6386 C   0  0  0  0  0  0  0  0  0  0  0  0
  -18.8720   37.5748  -23.3708 N   0  0  0  0  0  0  0  0  0  0  0  0
  -18.4796   38.7742  -22.9127 C   0  0  0  0  0  0  0  0  0  0  0  0
  -17.4815   39.6525  -23.3399 C   0  0  0  0  0  0  0  0  0  0  0  0
  -17.2991   40.8384  -22.6664 C   0  0  0  0  0  0  0  0  0  0  0  0
  -18.1032   41.1480  -21.5766 C   0  0  0  0  0  0  0  0  0  0  0  0
  -17.8887   42.6672  -20.6931 Cl  0  0  0  0  0  0  0  0  0  0  0  0
  -19.0863   40.2784  -21.1590 C   0  0  0  0  0  0  0  0  0  0  0  0
  -19.2739   39.0885  -21.8299 C   0  0  0  0  0  0  0  0  0  0  0  0
  1  2  1  0
  2  3  2  0
  2  4  1  0
  4  5  1  0
  5  6  1  0
  6  7  1  0
  7  8  1  0
  8  9  2  0
  9 10  1  0
 10 11  1  0
 11 12  2  0
 12 13  1  0
 13 14  2  0
 14 15  1  0
 14 16  1  0
 16 17  2  0
  9  4  1  0
 17 11  1  0
 17  8  1  0
M  END
$$$$
