
     RDKit          3D

 16 18  0  0  0  0  0  0  0  0999 V2000
  -27.0507   12.9992  -22.0621 N   0  0  0  0  0  0  0  0  0  0  0  0
  -27.3382   14.3516  -22.3774 C   0  0  0  0  0  0  0  0  0  0  0  0
  -28.5843   14.6190  -22.7386 N   0  0  0  0  0  0  0  0  0  0  0  0
  -29.0391   15.8178  -23.0428 C   0  0  0  0  0  0  0  0  0  0  0  0
  -28.1517   16.8576  -22.9778 N   0  0  0  0  0  0  0  0  0  0  0  0
  -26.8964   16.6157  -22.6184 C   0  0  0  0  0  0  0  0  0  0  0  0
  -25.4482   17.6819  -22.3920 S   0  0  0  0  0  0  0  0  0  0  0  0
  -24.2686   16.3770  -21.8811 C   0  0  0  0  0  0  0  0  0  0  0  0
  -25.0877   15.2529  -21.9316 C   0  0  0  0  0  0  0  0  0  0  0  0
  -24.3862   13.9674  -21.6109 C   0  0  0  0  0  0  0  0  0  0  0  0
  -24.3767   12.9508  -22.5095 C   0  0  0  0  0  0  0  0  0  0  0  0
  -23.7310   11.7478  -22.1990 C   0  0  0  0  0  0  0  0  0  0  0  0
  -23.1083   11.6016  -20.9839 C   0  0  0  0  0  0  0  0  0  0  0  0
  -23.1206   12.6366  -20.0758 C   0  0  0  0  0  0  0  0  0  0  0  0
  -23.7719   13.8377  -20.3996 C   0  0  0  0  0  0  0  0  0  0  0  0
  -26.3585   15.3802  -22.2884 C   0  0  0  0  0  0  0  0  0  0  0  0
  1  2  1  0
  2  3  2  0
  3  4  1  0
  4  5  2  0
  5  6  1  0
  6  7  1  0
  7  8  1  0
  8  9  2  0
  9 10  1  0
 10 11  2  0
 11 12  1  0
 12 13  2  0
 13 14  1  0
 14 15  2  0
  9 16  1  0
 16  2  1  0
 16  6  2  0
 15 10  1  0
M  END
$$$$
