
     RDKit          3D

 24 26  0  0  0  0  0  0  0  0999 V2000
  -17.0219   15.3352  -29.2987 O   0  0  0  0  0  0  0  0  0  0  0  0
  -16.4656   14.2498  -29.5982 C   0  0  0  0  0  0  0  0  0  0  0  0
  -16.9716   13.5281  -30.6607 O   0  0  0  0  0  0  0  0  0  0  0  0
  -17.9923   13.9721  -31.4835 C   0  0  0  0  0  0  0  0  0  0  0  0
  -19.2972   14.0491  -30.7516 C   0  0  0  0  0  0  0  0  0  0  0  0
  -19.7146   15.4145  -30.5661 N   0  0  0  0  0  0  0  0  0  0  0  0
  -19.5794   16.2746  -29.4725 C   0  0  0  0  0  0  0  0  0  0  0  0
  -19.0505   16.0311  -28.3619 O   0  0  0  0  0  0  0  0  0  0  0  0
  -20.1834   17.5715  -29.8422 C   0  0  0  0  0  0  0  0  0  0  0  0
  -20.3239   18.7622  -29.1477 C   0  0  0  0  0  0  0  0  0  0  0  0
  -20.9343   19.8806  -29.6901 C   0  0  0  0  0  0  0  0  0  0  0  0
  -21.4132   19.7779  -30.9759 C   0  0  0  0  0  0  0  0  0  0  0  0
  -21.2869   18.6073  -31.6881 C   0  0  0  0  0  0  0  0  0  0  0  0
  -20.6685   17.4923  -31.1228 C   0  0  0  0  0  0  0  0  0  0  0  0
  -20.3913   16.1523  -31.6073 C   0  0  0  0  0  0  0  0  0  0  0  0
  -20.7007   15.7308  -32.7496 O   0  0  0  0  0  0  0  0  0  0  0  0
  -15.3223   13.7399  -28.8695 C   0  0  0  0  0  0  0  0  0  0  0  0
  -15.5314   13.0711  -27.6867 C   0  0  0  0  0  0  0  0  0  0  0  0
  -14.4640   12.5606  -26.9469 C   0  0  0  0  0  0  0  0  0  0  0  0
  -13.1991   12.7673  -27.4718 C   0  0  0  0  0  0  0  0  0  0  0  0
  -11.8463   12.1290  -26.5491 Cl  0  0  0  0  0  0  0  0  0  0  0  0
  -12.9764   13.4291  -28.6444 C   0  0  0  0  0  0  0  0  0  0  0  0
  -11.3311   13.6357  -29.2199 Cl  0  0  0  0  0  0  0  0  0  0  0  0
  -14.0429   13.9173  -29.3459 C   0  0  0  0  0  0  0  0  0  0  0  0
  1  2  2  0
  2  3  1  0
  3  4  1  0
  4  5  1  0
  5  6  1  0
  6  7  1  0
  7  8  2  0
  7  9  1  0
  9 10  2  0
 10 11  1  0
 11 12  2  0
 12 13  1  0
 13 14  2  0
 14 15  1  0
 15 16  2  0
  2 17  1  0
 17 18  2  0
 18 19  1  0
 19 20  2  0
 20 21  1  0
 20 22  1  0
 22 23  1  0
 22 24  2  0
 15  6  1  0
 24 17  1  0
 14  9  1  0
M  END
$$$$
