
     RDKit          3D

 11 11  0  0  0  0  0  0  0  0999 V2000
  -18.4155   38.0108  -20.7674 O   0  0  0  0  0  0  0  0  0  0  0  0
  -18.0623   37.3120  -21.7726 C   0  0  0  0  0  0  0  0  0  0  0  0
  -16.6580   37.2319  -21.9632 O   0  0  0  0  0  0  0  0  0  0  0  0
  -18.9777   36.6215  -22.6933 C   0  0  0  0  0  0  0  0  0  0  0  0
  -19.3937   35.2597  -22.2679 C   0  0  0  0  0  0  0  0  0  0  0  0
  -18.5811   34.1992  -22.6621 C   0  0  0  0  0  0  0  0  0  0  0  0
  -18.9004   32.9016  -22.2564 C   0  0  0  0  0  0  0  0  0  0  0  0
  -20.0034   32.6513  -21.4734 C   0  0  0  0  0  0  0  0  0  0  0  0
  -20.2777   31.3575  -21.1018 O   0  0  0  0  0  0  0  0  0  0  0  0
  -20.7860   33.7188  -21.1007 C   0  0  0  0  0  0  0  0  0  0  0  0
  -20.4915   35.0245  -21.4925 C   0  0  0  0  0  0  0  0  0  0  0  0
  1  2  2  0
  2  3  1  0
  2  4  1  0
  4  5  1  0
  5  6  2  0
  6  7  1  0
  7  8  2  0
  8  9  1  0
  8 10  1  0
 10 11  2  0
 11  5  1  0
M  END
$$$$
