
     RDKit          3D

 29 30  0  0  0  0  0  0  0  0999 V2000
  -30.9811   18.2587  -22.7816 C   0  0  0  0  0  0  0  0  0  0  0  0
  -30.4604   16.9762  -22.1764 C   0  0  0  0  0  0  0  0  0  0  0  0
  -29.7689   16.1151  -23.2246 C   0  0  0  0  0  0  0  0  0  0  0  0
  -29.1987   14.8735  -22.6231 C   0  0  0  0  0  0  0  0  0  0  0  0
  -27.8104   14.7587  -22.4255 C   0  0  0  0  0  0  0  0  0  0  0  0
  -27.0316   15.7920  -22.7879 O   0  0  0  0  0  0  0  0  0  0  0  0
  -26.3203   16.1422  -23.9024 C   0  0  0  0  0  0  0  0  0  0  0  0
  -25.9754   17.5936  -23.9072 C   0  0  0  0  0  0  0  0  0  0  0  0
  -24.9730   17.9484  -24.9891 C   0  0  0  0  0  0  0  0  0  0  0  0
  -24.8943   19.3469  -25.1792 O   0  0  0  0  0  0  0  0  0  0  0  0
  -24.0022   19.8188  -26.1286 C   0  0  0  0  0  0  0  0  0  0  0  0
  -23.8943   19.1305  -27.3207 C   0  0  0  0  0  0  0  0  0  0  0  0
  -23.0210   19.5474  -28.3143 C   0  0  0  0  0  0  0  0  0  0  0  0
  -22.2200   20.6715  -28.1541 C   0  0  0  0  0  0  0  0  0  0  0  0
  -21.3689   21.0494  -29.1637 O   0  0  0  0  0  0  0  0  0  0  0  0
  -21.6968   20.9990  -30.5311 C   0  0  0  0  0  0  0  0  0  0  0  0
  -20.9612   19.8931  -31.2212 C   0  0  0  0  0  0  0  0  0  0  0  0
  -21.3139   19.4801  -32.3566 O   0  0  0  0  0  0  0  0  0  0  0  0
  -19.8703   19.2996  -30.6175 O   0  0  0  0  0  0  0  0  0  0  0  0
  -22.3366   21.3507  -26.9593 C   0  0  0  0  0  0  0  0  0  0  0  0
  -23.2073   20.9360  -25.9673 C   0  0  0  0  0  0  0  0  0  0  0  0
  -27.3649   13.6013  -21.8750 C   0  0  0  0  0  0  0  0  0  0  0  0
  -28.1866   12.5330  -21.4993 C   0  0  0  0  0  0  0  0  0  0  0  0
  -29.5468   12.6626  -21.7008 C   0  0  0  0  0  0  0  0  0  0  0  0
  -30.3995   11.5517  -21.3087 C   0  0  0  0  0  0  0  0  0  0  0  0
  -31.8807   11.6413  -21.3182 C   0  0  0  0  0  0  0  0  0  0  0  0
  -29.8834   10.4709  -20.9463 O   0  0  0  0  0  0  0  0  0  0  0  0
  -30.0315   13.8402  -22.2633 C   0  0  0  0  0  0  0  0  0  0  0  0
  -31.4165   13.9212  -22.4463 O   0  0  0  0  0  0  0  0  0  0  0  0
  1  2  1  0
  2  3  1  0
  3  4  1  0
  4  5  2  0
  5  6  1  0
  6  7  1  0
  7  8  1  0
  8  9  1  0
  9 10  1  0
 10 11  1  0
 11 12  2  0
 12 13  1  0
 13 14  2  0
 14 15  1  0
 15 16  1  0
 16 17  1  0
 17 18  2  0
 17 19  1  0
 14 20  1  0
 20 21  2  0
  5 22  1  0
 22 23  2  0
 23 24  1  0
 24 25  1  0
 25 26  1  0
 25 27  2  0
 24 28  2  0
 28 29  1  0
 28  4  1  0
 21 11  1  0
M  END
$$$$
