
     RDKit          3D

 29 32  0  0  0  0  0  0  0  0999 V2000
  -24.1174   19.6725  -30.3592 O   0  0  0  0  0  0  0  0  0  0  0  0
  -22.9027   19.3990  -30.2198 C   0  0  0  0  0  0  0  0  0  0  0  0
  -22.0834   20.3489  -29.6423 O   0  0  0  0  0  0  0  0  0  0  0  0
  -22.3837   18.1122  -30.6595 C   0  0  0  0  0  0  0  0  0  0  0  0
  -23.2580   17.1016  -31.0207 C   0  0  0  0  0  0  0  0  0  0  0  0
  -22.7385   15.8892  -31.4406 C   0  0  0  0  0  0  0  0  0  0  0  0
  -23.6196   14.8900  -31.7961 C   0  0  0  0  0  0  0  0  0  0  0  0
  -23.1309   13.6739  -32.2153 C   0  0  0  0  0  0  0  0  0  0  0  0
  -21.7443   13.5021  -32.2639 C   0  0  0  0  0  0  0  0  0  0  0  0
  -20.8567   14.4923  -31.9115 C   0  0  0  0  0  0  0  0  0  0  0  0
  -21.3641   15.7016  -31.4942 C   0  0  0  0  0  0  0  0  0  0  0  0
  -20.4665   16.7083  -31.1336 C   0  0  0  0  0  0  0  0  0  0  0  0
  -19.0130   16.4513  -31.1935 C   0  0  0  0  0  0  0  0  0  0  0  0
  -18.2971   17.2162  -32.2276 C   0  0  0  0  0  0  0  0  0  0  0  0
  -18.8085   17.3800  -33.5005 C   0  0  0  0  0  0  0  0  0  0  0  0
  -20.0339   16.7906  -33.7827 O   0  0  0  0  0  0  0  0  0  0  0  0
  -18.1804   18.0853  -34.4937 C   0  0  0  0  0  0  0  0  0  0  0  0
  -18.7573   18.2384  -35.8512 C   0  0  0  0  0  0  0  0  0  0  0  0
  -19.7465   17.5817  -36.2117 O   0  0  0  0  0  0  0  0  0  0  0  0
  -18.1799   19.1326  -36.7307 O   0  0  0  0  0  0  0  0  0  0  0  0
  -16.9669   18.6533  -34.1701 C   0  0  0  0  0  0  0  0  0  0  0  0
  -16.3984   18.5325  -32.9253 C   0  0  0  0  0  0  0  0  0  0  0  0
  -15.1882   19.1218  -32.6384 C   0  0  0  0  0  0  0  0  0  0  0  0
  -14.6112   19.0112  -31.3792 C   0  0  0  0  0  0  0  0  0  0  0  0
  -15.2434   18.3105  -30.4013 C   0  0  0  0  0  0  0  0  0  0  0  0
  -16.4699   17.7187  -30.7085 C   0  0  0  0  0  0  0  0  0  0  0  0
  -17.0718   17.8060  -31.9439 C   0  0  0  0  0  0  0  0  0  0  0  0
  -21.0072   17.8895  -30.7251 C   0  0  0  0  0  0  0  0  0  0  0  0
  -20.1986   18.9532  -30.3445 O   0  0  0  0  0  0  0  0  0  0  0  0
  1  2  2  0
  2  3  1  0
  2  4  1  0
  4  5  2  0
  5  6  1  0
  6  7  2  0
  7  8  1  0
  8  9  2  0
  9 10  1  0
 10 11  2  0
 11 12  1  0
 12 13  1  0
 13 14  1  0
 14 15  2  0
 15 16  1  0
 15 17  1  0
 17 18  1  0
 18 19  2  0
 18 20  1  0
 17 21  2  0
 21 22  1  0
 22 23  2  0
 23 24  1  0
 24 25  2  0
 25 26  1  0
 26 27  2  0
 12 28  2  0
 28 29  1  0
 28  4  1  0
 11  6  1  0
 27 14  1  0
 27 22  1  0
M  END
$$$$
