
     RDKit          3D

 21 23  0  0  0  0  0  0  0  0999 V2000
  -19.5722   44.6628  -21.7106 N   0  0  0  0  0  0  0  0  0  0  0  0
  -18.5501   43.6070  -20.8058 S   0  0  0  0  0  6  0  0  0  0  0  0
  -17.7988   44.4686  -19.8011 O   0  0  0  0  0  0  0  0  0  0  0  0
  -17.5016   43.0039  -21.6978 O   0  0  0  0  0  0  0  0  0  0  0  0
  -19.4667   42.4256  -20.0219 O   0  0  0  0  0  0  0  0  0  0  0  0
  -19.6557   41.1423  -20.5097 C   0  0  0  0  0  0  0  0  0  0  0  0
  -20.8885   40.8018  -21.0343 C   0  0  0  0  0  0  0  0  0  0  0  0
  -21.1281   39.5441  -21.5306 C   0  0  0  0  0  0  0  0  0  0  0  0
  -20.1478   38.5922  -21.5181 C   0  0  0  0  0  0  0  0  0  0  0  0
  -20.3138   37.3165  -21.9956 C   0  0  0  0  0  0  0  0  0  0  0  0
  -19.2835   36.4092  -21.9514 C   0  0  0  0  0  0  0  0  0  0  0  0
  -18.0798   36.8015  -21.4193 C   0  0  0  0  0  0  0  0  0  0  0  0
  -17.0985   35.9798  -21.3632 O   0  0  0  0  0  0  0  0  0  0  0  0
  -17.9325   38.0219  -20.9664 O   0  0  0  0  0  0  0  0  0  0  0  0
  -18.9096   38.9087  -20.9995 C   0  0  0  0  0  0  0  0  0  0  0  0
  -18.6789   40.1812  -20.5014 C   0  0  0  0  0  0  0  0  0  0  0  0
  -19.3209   35.0073  -22.4257 C   0  0  0  0  0  0  0  0  0  0  0  0
  -20.4485   34.3088  -21.6962 C   0  0  0  0  0  0  0  0  0  0  0  0
  -21.8091   34.6530  -22.1804 C   0  0  0  0  0  0  0  0  0  0  0  0
  -21.8999   35.7910  -23.1365 C   0  0  0  0  0  0  0  0  0  0  0  0
  -21.6975   37.1518  -22.5144 C   0  0  0  0  0  0  0  0  0  0  0  0
  1  2  1  0
  2  3  2  0
  2  4  2  0
  2  5  1  0
  5  6  1  0
  6  7  2  0
  7  8  1  0
  8  9  2  0
  9 10  1  0
 10 11  2  0
 11 12  1  0
 12 13  2  0
 12 14  1  0
 14 15  1  0
 15 16  2  0
 11 17  1  0
 17 18  1  0
 18 19  1  0
 19 20  1  0
 20 21  1  0
 16  6  1  0
 15  9  1  0
 21 10  1  0
M  END
$$$$
