
     RDKit          3D

 38 42  0  0  0  0  0  0  0  0999 V2000
  -31.9105    4.2226  -29.3602 C   0  0  0  0  0  0  0  0  0  0  0  0
  -32.2851    5.1205  -28.2308 C   0  0  0  0  0  0  0  0  0  0  0  0
  -32.6924    4.2969  -27.0091 C   0  0  0  0  0  0  0  0  0  0  0  0
  -33.4429    6.0331  -28.5463 C   0  0  0  0  0  0  0  0  0  0  0  0
  -31.1111    5.9460  -27.8027 C   0  0  0  0  0  0  0  0  0  0  0  0
  -31.0737    7.3227  -27.5941 C   0  0  0  0  0  0  0  0  0  0  0  0
  -29.7959    7.6537  -27.2101 C   0  0  0  0  0  0  0  0  0  0  0  0
  -29.2273    8.9142  -26.8786 N   0  0  0  0  0  0  0  0  0  0  0  0
  -28.9818    9.3190  -25.5241 C   0  0  0  0  0  0  0  0  0  0  0  0
  -28.3220    8.5753  -24.8067 O   0  0  0  0  0  0  0  0  0  0  0  0
  -29.4672   10.5283  -24.9948 N   0  0  0  0  0  0  0  0  0  0  0  0
  -28.8062   11.6896  -24.6324 C   0  0  0  0  0  0  0  0  0  0  0  0
  -27.5319   11.5515  -24.0702 C   0  0  0  0  0  0  0  0  0  0  0  0
  -26.7686   12.6238  -23.6789 C   0  0  0  0  0  0  0  0  0  0  0  0
  -27.2367   13.8986  -23.8283 C   0  0  0  0  0  0  0  0  0  0  0  0
  -26.4751   14.9937  -23.4387 O   0  0  0  0  0  0  0  0  0  0  0  0
  -26.6768   15.7547  -22.3128 C   0  0  0  0  0  0  0  0  0  0  0  0
  -27.1283   17.0777  -22.4566 C   0  0  0  0  0  0  0  0  0  0  0  0
  -27.3500   17.8912  -21.3816 C   0  0  0  0  0  0  0  0  0  0  0  0
  -27.1275   17.4021  -20.1689 N   0  0  0  0  0  0  0  0  0  0  0  0
  -26.6963   16.1452  -19.9847 C   0  0  0  0  0  0  0  0  0  0  0  0
  -26.4996   15.7451  -18.6943 N   0  0  0  0  0  0  0  0  0  0  0  0
  -26.0715   14.5033  -18.4756 C   0  0  0  0  0  0  0  0  0  0  0  0
  -25.8892   14.1337  -17.2695 O   0  0  0  0  0  0  0  0  0  0  0  0
  -25.8357   13.6492  -19.5417 C   0  0  0  0  0  0  0  0  0  0  0  0
  -26.0283   14.0407  -20.8083 N   0  0  0  0  0  0  0  0  0  0  0  0
  -26.4638   15.3024  -21.0420 C   0  0  0  0  0  0  0  0  0  0  0  0
  -28.4980   14.0692  -24.3832 C   0  0  0  0  0  0  0  0  0  0  0  0
  -29.2622   12.9511  -24.7770 C   0  0  0  0  0  0  0  0  0  0  0  0
  -30.4689   13.2578  -25.3147 F   0  0  0  0  0  0  0  0  0  0  0  0
  -29.0620    6.5002  -27.1835 N   0  0  0  0  0  0  0  0  0  0  0  0
  -27.6884    6.4028  -26.8361 C   0  0  0  0  0  0  0  0  0  0  0  0
  -27.0611    5.1877  -26.9967 C   0  0  0  0  0  0  0  0  0  0  0  0
  -25.7275    5.0554  -26.6697 C   0  0  0  0  0  0  0  0  0  0  0  0
  -24.9902    6.1288  -26.1762 C   0  0  0  0  0  0  0  0  0  0  0  0
  -25.6209    7.3387  -26.0179 C   0  0  0  0  0  0  0  0  0  0  0  0
  -26.9749    7.4672  -26.3515 C   0  0  0  0  0  0  0  0  0  0  0  0
  -29.8724    5.5185  -27.5384 N   0  0  0  0  0  0  0  0  0  0  0  0
  1  2  1  0
  2  3  1  0
  2  4  1  0
  2  5  1  0
  5  6  1  0
  6  7  2  0
  7  8  1  0
  8  9  1  0
  9 10  2  0
  9 11  1  0
 11 12  1  0
 12 13  2  0
 13 14  1  0
 14 15  2  0
 15 16  1  0
 16 17  1  0
 17 18  2  0
 18 19  1  0
 19 20  2  0
 20 21  1  0
 21 22  1  0
 22 23  1  0
 23 24  2  0
 23 25  1  0
 25 26  2  0
 26 27  1  0
 15 28  1  0
 28 29  2  0
 29 30  1  0
  7 31  1  0
 31 32  1  0
 32 33  2  0
 33 34  1  0
 34 35  2  0
 35 36  1  0
 36 37  2  0
 31 38  1  0
 38  5  2  0
 29 12  1  0
 37 32  1  0
 27 17  1  0
 27 21  2  0
M  END
$$$$
