
     RDKit          3D

 35 38  0  0  0  0  0  0  0  0999 V2000
  -21.6780   20.1497  -37.2794 C   0  0  0  0  0  0  0  0  0  0  0  0
  -21.3583   19.8451  -38.6221 O   0  0  0  0  0  0  0  0  0  0  0  0
  -20.0372   19.6554  -38.9718 C   0  0  0  0  0  0  0  0  0  0  0  0
  -19.2049   18.8897  -38.1560 C   0  0  0  0  0  0  0  0  0  0  0  0
  -17.8821   18.6786  -38.4722 C   0  0  0  0  0  0  0  0  0  0  0  0
  -17.0232   17.9325  -37.6980 C   0  0  0  0  0  0  0  0  0  0  0  0
  -17.4863   17.3138  -36.5085 N   0  0  0  0  0  0  0  0  0  0  0  0
  -16.8986   16.0428  -36.0392 C   0  0  0  0  0  0  0  0  0  0  0  0
  -17.8200   15.3887  -35.0356 C   0  0  0  0  0  0  0  0  0  0  0  0
  -17.5147   15.6856  -33.6124 C   0  0  0  0  0  0  0  0  0  0  0  0
  -16.1191   15.5036  -33.3242 N   0  0  0  0  0  0  0  0  0  0  0  0
  -15.6442   14.1675  -33.5215 C   0  0  0  0  0  0  0  0  0  0  0  0
  -15.3993   16.5113  -34.0542 C   0  0  0  0  0  0  0  0  0  0  0  0
  -15.5159   16.2356  -35.5295 C   0  0  0  0  0  0  0  0  0  0  0  0
  -15.7445   17.7802  -38.0832 N   0  0  0  0  0  0  0  0  0  0  0  0
  -15.2944   18.3449  -39.2110 C   0  0  0  0  0  0  0  0  0  0  0  0
  -13.9494   18.2061  -39.6505 N   0  0  0  0  0  0  0  0  0  0  0  0
  -13.0590   17.6089  -38.6886 C   0  0  0  0  0  0  0  0  0  0  0  0
  -11.7601   17.1547  -39.3179 C   0  0  0  0  0  0  0  0  0  0  0  0
  -10.9189   18.3544  -39.7246 C   0  0  0  0  0  0  0  0  0  0  0  0
  -11.2745   18.6359  -41.1157 N   0  0  0  0  0  0  0  0  0  0  0  0
  -10.1679   19.2544  -41.8192 C   0  0  0  0  0  0  0  0  0  0  0  0
  -12.4391   19.4786  -41.1025 C   0  0  0  0  0  0  0  0  0  0  0  0
  -13.7305   18.6963  -40.9925 C   0  0  0  0  0  0  0  0  0  0  0  0
  -16.1329   19.0720  -39.9648 N   0  0  0  0  0  0  0  0  0  0  0  0
  -17.4228   19.2735  -39.6529 C   0  0  0  0  0  0  0  0  0  0  0  0
  -18.2524   20.0347  -40.4628 C   0  0  0  0  0  0  0  0  0  0  0  0
  -19.5700   20.2351  -40.1322 C   0  0  0  0  0  0  0  0  0  0  0  0
  -20.4441   20.9822  -40.8973 O   0  0  0  0  0  0  0  0  0  0  0  0
  -20.0535   21.9809  -41.7969 C   0  0  0  0  0  0  0  0  0  0  0  0
  -21.1476   23.0527  -41.8148 C   0  0  0  0  0  0  0  0  0  0  0  0
  -20.6358   24.1680  -42.7131 C   0  0  0  0  0  0  0  0  0  0  0  0
  -20.5309   23.6581  -44.0513 N   0  0  0  0  0  0  0  0  0  0  0  0
  -20.8829   24.6085  -45.0610 C   0  0  0  0  0  0  0  0  0  0  0  0
  -21.1415   22.3711  -44.2216 C   0  0  0  0  0  0  0  0  0  0  0  0
  1  2  1  0
  2  3  1  0
  3  4  2  0
  4  5  1  0
  5  6  2  0
  6  7  1  0
  7  8  1  0
  8  9  1  0
  9 10  1  0
 10 11  1  0
 11 12  1  0
 11 13  1  0
 13 14  1  0
  6 15  1  0
 15 16  2  0
 16 17  1  0
 17 18  1  0
 18 19  1  0
 19 20  1  0
 20 21  1  0
 21 22  1  0
 21 23  1  0
 23 24  1  0
 16 25  1  0
 25 26  2  0
 26 27  1  0
 27 28  2  0
 28 29  1  0
 29 30  1  0
 30 31  1  0
 31 32  1  0
 32 33  1  0
 33 34  1  0
 33 35  1  0
 28  3  1  0
 26  5  1  0
 14  8  1  0
 24 17  1  0
M  END
$$$$
