
     RDKit          3D

 17 19  0  0  0  0  0  0  0  0999 V2000
  -19.2884   38.4577  -21.9949 O   0  0  0  0  0  0  0  0  0  0  0  0
  -19.0030   39.0658  -20.9441 C   0  0  0  0  0  0  0  0  0  0  0  0
  -17.8013   39.8994  -20.7432 C   0  0  0  0  0  0  0  0  0  0  0  0
  -18.1087   40.7115  -19.5271 C   0  0  0  0  0  0  0  0  0  0  0  0
  -18.0633   42.1513  -19.8220 C   0  0  0  0  0  0  0  0  0  0  0  0
  -19.1467   42.9182  -20.2066 C   0  0  0  0  0  0  0  0  0  0  0  0
  -18.6844   44.1678  -20.3809 N   0  0  0  0  0  0  0  0  0  0  0  0
  -17.3681   44.2394  -20.1288 C   0  0  0  0  0  0  0  0  0  0  0  0
  -16.4533   45.2721  -20.1637 C   0  0  0  0  0  0  0  0  0  0  0  0
  -15.1426   44.9929  -19.8363 C   0  0  0  0  0  0  0  0  0  0  0  0
  -14.7283   43.7255  -19.4799 C   0  0  0  0  0  0  0  0  0  0  0  0
  -13.4126   43.4831  -19.1594 F   0  0  0  0  0  0  0  0  0  0  0  0
  -15.6280   42.6951  -19.4426 C   0  0  0  0  0  0  0  0  0  0  0  0
  -16.9494   42.9567  -19.7685 C   0  0  0  0  0  0  0  0  0  0  0  0
  -19.3727   40.2170  -18.9901 C   0  0  0  0  0  0  0  0  0  0  0  0
  -20.0431   40.6731  -18.0304 O   0  0  0  0  0  0  0  0  0  0  0  0
  -19.7588   39.0805  -19.7513 N   0  0  0  0  0  0  0  0  0  0  0  0
  1  2  2  0
  2  3  1  0
  3  4  1  0
  4  5  1  0
  5  6  2  0
  6  7  1  0
  7  8  1  0
  8  9  2  0
  9 10  1  0
 10 11  2  0
 11 12  1  0
 11 13  1  0
 13 14  2  0
  4 15  1  0
 15 16  2  0
 15 17  1  0
 17  2  1  0
 14  5  1  0
 14  8  1  0
M  END
$$$$
