
     RDKit          3D

 30 32  0  0  0  0  0  0  0  0999 V2000
  -13.7072   46.2816  -20.0536 C   0  0  0  0  0  0  0  0  0  0  0  0
  -14.1954   44.8714  -19.8234 C   0  0  0  0  0  0  0  0  0  0  0  0
  -15.1701   44.4672  -20.9149 C   0  0  0  0  0  0  0  0  0  0  0  0
  -15.6202   43.0623  -20.6293 C   0  0  0  0  0  0  0  0  0  0  0  0
  -16.5708   42.5540  -21.6589 C   0  0  0  0  0  0  0  0  0  0  0  0
  -16.8170   41.0861  -21.5302 C   0  0  0  0  0  0  0  0  0  0  0  0
  -17.6459   40.5327  -22.6736 C   0  0  0  0  0  0  0  0  0  0  0  0
  -17.5783   39.0205  -22.5804 C   0  0  0  0  0  0  0  0  0  0  0  0
  -18.8335   38.4425  -22.0709 C   0  0  0  0  0  0  0  0  0  0  0  0
  -18.7959   37.7553  -20.9951 O   0  0  0  0  0  0  0  0  0  0  0  0
  -20.1006   38.5740  -22.6662 N   0  0  0  0  0  0  0  0  0  0  0  0
  -21.3288   37.9846  -22.1375 C   0  0  2  0  0  0  0  0  0  0  0  0
  -21.8136   36.8381  -22.9544 C   0  0  0  0  0  0  0  0  0  0  0  0
  -20.8110   35.7918  -22.9117 N   0  0  0  0  0  0  0  0  0  0  0  0
  -20.8622   35.0058  -21.6979 C   0  0  0  0  0  0  0  0  0  0  0  0
  -19.6603   34.0777  -21.9164 C   0  0  0  0  0  0  0  0  0  0  0  0
  -18.6475   35.0918  -22.4573 C   0  0  0  0  0  0  0  0  0  0  0  0
  -19.4616   36.3041  -22.8894 C   0  0  0  0  0  0  0  0  0  0  0  0
  -22.3717   39.0475  -21.8838 C   0  0  2  0  0  0  0  0  0  0  0  0
  -22.9829   39.3496  -23.0951 O   0  0  0  0  0  0  0  0  0  0  0  0
  -21.8677   40.2820  -21.2851 C   0  0  0  0  0  0  0  0  0  0  0  0
  -21.7347   40.3703  -19.9207 C   0  0  0  0  0  0  0  0  0  0  0  0
  -21.2516   41.5763  -19.3989 C   0  0  0  0  0  0  0  0  0  0  0  0
  -20.9205   42.6367  -20.2141 C   0  0  0  0  0  0  0  0  0  0  0  0
  -21.0583   42.5404  -21.6060 C   0  0  0  0  0  0  0  0  0  0  0  0
  -21.5327   41.3503  -22.0892 C   0  0  0  0  0  0  0  0  0  0  0  0
  -20.7076   43.6421  -22.3711 O   0  0  0  0  0  0  0  0  0  0  0  0
  -20.3331   44.8941  -21.8885 C   0  0  0  0  0  0  0  0  0  0  0  0
  -20.3385   45.0316  -20.3963 C   0  0  0  0  0  0  0  0  0  0  0  0
  -20.4434   43.8267  -19.6947 O   0  0  0  0  0  0  0  0  0  0  0  0
  1  2  1  0
  2  3  1  0
  3  4  1  0
  4  5  1  0
  5  6  1  0
  6  7  1  0
  7  8  1  0
  8  9  1  0
  9 10  2  0
  9 11  1  0
 11 12  1  0
 12 13  1  6
 13 14  1  0
 14 15  1  0
 15 16  1  0
 16 17  1  0
 17 18  1  0
 12 19  1  0
 19 20  1  6
 19 21  1  0
 21 22  2  0
 22 23  1  0
 23 24  2  0
 24 25  1  0
 25 26  2  0
 25 27  1  0
 27 28  1  0
 28 29  1  0
 29 30  1  0
 18 14  1  0
 26 21  1  0
 30 24  1  0
M  END
$$$$
