
     RDKit          3D

 43 46  0  0  0  0  0  0  0  0999 V2000
  -10.5008   21.5797  -45.7940 C   0  0  0  0  0  0  0  0  0  0  0  0
  -11.2591   20.3913  -45.7180 O   0  0  0  0  0  0  0  0  0  0  0  0
  -11.3335   19.7016  -44.5181 C   0  0  0  0  0  0  0  0  0  0  0  0
  -10.2438   19.5433  -43.6978 C   0  0  0  0  0  0  0  0  0  0  0  0
  -10.3036   18.8500  -42.4843 C   0  0  0  0  0  0  0  0  0  0  0  0
   -9.0877   18.7238  -41.6317 C   0  0  0  0  0  0  0  0  0  0  0  0
  -11.4668   18.2852  -42.0457 C   0  0  0  0  0  0  0  0  0  0  0  0
  -11.7296   17.3942  -40.5753 S   0  0  0  0  0  0  0  0  0  0  0  0
  -12.9929   17.8056  -39.5903 C   0  0  0  0  0  0  0  0  0  0  0  0
  -13.2391   18.6384  -38.4970 C   0  0  0  0  0  0  0  0  0  0  0  0
  -14.4066   18.7144  -38.0125 N   0  0  0  0  0  0  0  0  0  0  0  0
  -15.4357   18.0999  -38.4123 C   0  0  0  0  0  0  0  0  0  0  0  0
  -16.8211   17.9740  -38.1082 N   0  0  0  0  0  0  0  0  0  0  0  0
  -17.3181   17.1191  -37.0908 C   0  0  0  0  0  0  0  0  0  0  0  0
  -16.4782   16.3231  -36.5940 O   0  0  0  0  0  0  0  0  0  0  0  0
  -18.6893   17.1250  -36.6215 C   0  0  0  0  0  0  0  0  0  0  0  0
  -19.3881   18.3087  -36.6106 C   0  0  0  0  0  0  0  0  0  0  0  0
  -20.7002   18.3932  -36.1781 C   0  0  0  0  0  0  0  0  0  0  0  0
  -21.3358   17.2502  -35.7406 C   0  0  0  0  0  0  0  0  0  0  0  0
  -22.7372   17.3621  -35.2827 C   0  0  0  0  0  0  0  0  0  0  0  0
  -23.1509   18.7424  -35.4078 N   0  0  0  0  0  0  0  0  0  0  0  0
  -24.5398   18.9308  -35.6792 C   0  0  0  0  0  0  0  0  0  0  0  0
  -25.4552   18.0166  -34.9302 C   0  0  0  0  0  0  0  0  0  0  0  0
  -24.8962   20.4034  -35.4397 C   0  0  0  0  0  0  0  0  0  0  0  0
  -26.3811   20.4601  -35.0635 C   0  0  0  0  0  0  0  0  0  0  0  0
  -24.0277   20.9713  -34.3406 C   0  0  0  0  0  0  0  0  0  0  0  0
  -24.7491   21.1800  -36.7166 C   0  0  0  0  0  0  0  0  0  0  0  0
  -20.6726   16.0661  -35.7390 C   0  0  0  0  0  0  0  0  0  0  0  0
  -19.3431   15.9992  -36.1809 C   0  0  0  0  0  0  0  0  0  0  0  0
  -14.6454   17.1526  -39.8271 S   0  0  0  0  0  0  0  0  0  0  0  0
  -12.5722   18.4590  -42.9008 C   0  0  0  0  0  0  0  0  0  0  0  0
  -12.5152   19.1384  -44.0896 C   0  0  0  0  0  0  0  0  0  0  0  0
  -13.7319   19.2703  -44.9225 C   0  0  0  0  0  0  0  0  0  0  0  0
  -13.8198   18.5601  -45.9528 O   0  0  0  0  0  0  0  0  0  0  0  0
  -14.7674   20.1646  -44.5767 N   0  0  0  0  0  0  0  0  0  0  0  0
  -15.9658   20.3249  -45.3848 C   0  0  0  0  0  0  0  0  0  0  0  0
  -16.8395   21.4121  -44.7872 C   0  0  0  0  0  0  0  0  0  0  0  0
  -16.0308   22.5762  -44.4578 N   0  0  0  0  0  0  0  0  0  0  0  0
  -16.3212   23.8634  -45.0116 C   0  0  0  0  0  0  0  0  0  0  0  0
  -17.4885   24.0241  -45.9154 C   0  0  0  0  0  0  0  0  0  0  0  0
  -15.5931   24.8332  -44.7302 O   0  0  0  0  0  0  0  0  0  0  0  0
  -14.9295   22.4080  -43.5617 C   0  0  0  0  0  0  0  0  0  0  0  0
  -14.6317   20.9569  -43.3698 C   0  0  0  0  0  0  0  0  0  0  0  0
  1  2  1  0
  2  3  1  0
  3  4  2  0
  4  5  1  0
  5  6  1  0
  5  7  2  0
  7  8  1  0
  8  9  1  0
  9 10  2  0
 10 11  1  0
 11 12  2  0
 12 13  1  0
 13 14  1  0
 14 15  2  0
 14 16  1  0
 16 17  2  0
 17 18  1  0
 18 19  2  0
 19 20  1  0
 20 21  1  0
 21 22  1  0
 22 23  1  0
 22 24  1  0
 24 25  1  0
 24 26  1  0
 24 27  1  0
 19 28  1  0
 28 29  2  0
 12 30  1  0
  7 31  1  0
 31 32  2  0
 32 33  1  0
 33 34  2  0
 33 35  1  0
 35 36  1  0
 36 37  1  0
 37 38  1  0
 38 39  1  0
 39 40  1  0
 39 41  2  0
 38 42  1  0
 42 43  1  0
 32  3  1  0
 43 35  1  0
 30  9  1  0
 29 16  1  0
M  END
$$$$
