
     RDKit          3D

 27 30  0  0  0  0  0  0  0  0999 V2000
  -32.6558   12.8992  -19.0081 C   0  0  0  0  0  0  0  0  0  0  0  0
  -32.0452   12.4829  -20.2543 O   0  0  0  0  0  0  0  0  0  0  0  0
  -30.7405   12.0398  -20.1049 C   0  0  0  0  0  0  0  0  0  0  0  0
  -30.5584   10.7661  -19.6063 C   0  0  0  0  0  0  0  0  0  0  0  0
  -31.6103    9.8850  -19.3931 N   0  0  0  0  0  0  0  0  0  0  0  0
  -32.2279    9.8361  -18.0477 C   0  0  0  0  0  0  0  0  0  0  0  0
  -33.5723    9.1257  -18.1269 C   0  0  0  0  0  0  0  0  0  0  0  0
  -33.4449    7.7660  -18.5385 N   0  0  0  0  0  0  0  0  0  0  0  0
  -32.4256    7.6056  -19.5301 C   0  0  0  0  0  0  0  0  0  0  0  0
  -32.7396    6.5324  -20.5418 C   0  0  0  0  0  0  0  0  0  0  0  0
  -32.1619    8.9258  -20.2986 C   0  0  0  0  0  0  0  0  0  0  0  0
  -29.2244   10.3765  -19.4417 C   0  0  0  0  0  0  0  0  0  0  0  0
  -28.9487    9.1632  -18.9682 F   0  0  0  0  0  0  0  0  0  0  0  0
  -28.1824   11.1911  -19.7535 C   0  0  0  0  0  0  0  0  0  0  0  0
  -28.3851   12.4537  -20.2550 C   0  0  0  0  0  0  0  0  0  0  0  0
  -27.3412   13.2742  -20.5736 C   0  0  0  0  0  0  0  0  0  0  0  0
  -26.1786   12.8319  -20.3860 O   0  0  0  0  0  0  0  0  0  0  0  0
  -27.5534   14.5307  -21.0780 C   0  0  0  0  0  0  0  0  0  0  0  0
  -26.4179   15.3875  -21.4074 C   0  0  0  0  0  0  0  0  0  0  0  0
  -25.2862   15.0573  -21.0058 O   0  0  0  0  0  0  0  0  0  0  0  0
  -26.5700   16.5386  -22.1435 O   0  0  0  0  0  0  0  0  0  0  0  0
  -28.8511   14.9439  -21.2578 C   0  0  0  0  0  0  0  0  0  0  0  0
  -29.8973   14.1413  -20.9482 N   0  0  0  0  0  0  0  0  0  0  0  0
  -31.2532   14.5834  -21.2559 C   0  0  0  0  0  0  0  0  0  0  0  0
  -32.3853   14.1447  -20.4415 C   0  0  0  0  0  0  0  0  0  0  0  0
  -31.9097   15.4976  -20.1767 C   0  0  0  0  0  0  0  0  0  0  0  0
  -29.7077   12.8950  -20.4405 C   0  0  0  0  0  0  0  0  0  0  0  0
  1  2  1  0
  2  3  1  0
  3  4  2  0
  4  5  1  0
  5  6  1  0
  6  7  1  0
  7  8  1  0
  8  9  1  0
  9 10  1  0
  9 11  1  0
  4 12  1  0
 12 13  1  0
 12 14  2  0
 14 15  1  0
 15 16  1  0
 16 17  2  0
 16 18  1  0
 18 19  1  0
 19 20  2  0
 19 21  1  0
 18 22  2  0
 22 23  1  0
 23 24  1  0
 24 25  1  0
 25 26  1  0
 23 27  1  0
 27  3  1  0
 11  5  1  0
 27 15  2  0
 26 24  1  0
M  END
$$$$
