
     RDKit          3D

 31 33  0  0  0  0  0  0  0  0999 V2000
  -11.0290   40.0948  -18.9757 C   0  0  0  0  0  0  0  0  0  0  0  0
  -11.4146   41.3628  -18.5121 O   0  0  0  0  0  0  0  0  0  0  0  0
  -11.4332   41.6151  -17.1486 C   0  0  0  0  0  0  0  0  0  0  0  0
  -10.4298   41.3443  -16.3198 N   0  0  0  0  0  0  0  0  0  0  0  0
  -10.3989   41.5679  -15.0056 C   0  0  0  0  0  0  0  0  0  0  0  0
   -9.3571   41.2875  -14.1530 O   0  0  0  0  0  0  0  0  0  0  0  0
   -8.7080   40.0419  -14.1622 C   0  0  0  0  0  0  0  0  0  0  0  0
   -7.2441   40.2825  -14.1407 C   0  0  0  0  0  0  0  0  0  0  0  0
   -6.7029   41.1509  -15.0558 C   0  0  0  0  0  0  0  0  0  0  0  0
   -5.3345   41.3819  -15.0352 C   0  0  0  0  0  0  0  0  0  0  0  0
   -4.5109   40.7622  -14.1210 C   0  0  0  0  0  0  0  0  0  0  0  0
   -5.0783   39.8790  -13.1928 C   0  0  0  0  0  0  0  0  0  0  0  0
   -4.2310   39.2158  -12.2151 C   0  0  0  0  0  0  0  0  0  0  0  0
   -4.2607   39.5917  -10.8768 C   0  0  0  0  0  0  0  0  0  0  0  0
   -3.4919   38.9976   -9.8999 C   0  0  0  0  0  0  0  0  0  0  0  0
   -2.6343   37.9690  -10.2380 C   0  0  0  0  0  0  0  0  0  0  0  0
   -2.5820   37.5719  -11.5618 C   0  0  0  0  0  0  0  0  0  0  0  0
   -3.3595   38.1786  -12.5255 C   0  0  0  0  0  0  0  0  0  0  0  0
   -6.4254   39.6409  -13.2005 C   0  0  0  0  0  0  0  0  0  0  0  0
   -7.0130   38.7011  -12.2226 C   0  0  0  0  0  0  0  0  0  0  0  0
  -11.5351   42.1432  -14.4513 C   0  0  0  0  0  0  0  0  0  0  0  0
  -12.6115   42.4536  -15.2259 C   0  0  0  0  0  0  0  0  0  0  0  0
  -12.5726   42.1939  -16.5780 C   0  0  0  0  0  0  0  0  0  0  0  0
  -13.6990   42.5112  -17.5053 C   0  0  0  0  0  0  0  0  0  0  0  0
  -13.2899   43.7262  -18.2355 N   0  0  0  0  0  0  0  0  0  0  0  0
  -14.4034   44.5890  -18.4497 C   0  0  0  0  0  0  0  0  0  0  0  0
  -15.0274   44.5632  -19.8029 C   0  0  0  0  0  0  0  0  0  0  0  0
  -16.3645   44.0744  -19.8832 N   0  0  0  0  0  0  0  0  0  0  0  0
  -17.4503   44.8375  -20.3253 C   0  0  0  0  0  0  0  0  0  0  0  0
  -18.6486   44.1551  -20.9223 C   0  0  0  0  0  0  0  0  0  0  0  0
  -17.4803   46.0612  -20.2513 O   0  0  0  0  0  0  0  0  0  0  0  0
  1  2  1  0
  2  3  1  0
  3  4  2  0
  4  5  1  0
  5  6  1  0
  6  7  1  0
  7  8  1  0
  8  9  2  0
  9 10  1  0
 10 11  2  0
 11 12  1  0
 12 13  1  0
 13 14  2  0
 14 15  1  0
 15 16  2  0
 16 17  1  0
 17 18  2  0
 12 19  2  0
 19 20  1  0
  5 21  2  0
 21 22  1  0
 22 23  2  0
 23 24  1  0
 24 25  1  0
 25 26  1  0
 26 27  1  0
 27 28  1  0
 28 29  1  0
 29 30  1  0
 29 31  2  0
 23  3  1  0
 19  8  1  0
 18 13  1  0
M  END
$$$$
