
     RDKit          3D

 18 19  0  0  0  0  0  0  0  0999 V2000
  -10.3197   18.3924  -41.6590 C   0  0  0  0  0  0  0  0  0  0  0  0
  -11.4103   17.9760  -40.7393 C   0  0  0  0  0  0  0  0  0  0  0  0
  -11.1529   17.4627  -39.4884 C   0  0  0  0  0  0  0  0  0  0  0  0
  -12.1660   17.0707  -38.6216 C   0  0  0  0  0  0  0  0  0  0  0  0
  -13.4777   17.2131  -39.0604 C   0  0  0  0  0  0  0  0  0  0  0  0
  -13.7701   17.7205  -40.3011 C   0  0  0  0  0  0  0  0  0  0  0  0
  -15.1408   17.8739  -40.6942 N   0  0  0  0  0  0  0  0  0  0  0  0
  -16.1071   18.1941  -39.7148 C   0  0  0  0  0  0  0  0  0  0  0  0
  -15.8725   17.6966  -38.4208 C   0  0  0  0  0  0  0  0  0  0  0  0
  -16.7930   17.9555  -37.4304 C   0  0  0  0  0  0  0  0  0  0  0  0
  -17.9237   18.6933  -37.7137 C   0  0  0  0  0  0  0  0  0  0  0  0
  -18.1432   19.1757  -38.9817 C   0  0  0  0  0  0  0  0  0  0  0  0
  -17.2083   18.9185  -40.0111 C   0  0  0  0  0  0  0  0  0  0  0  0
  -17.4894   19.4413  -41.3223 C   0  0  0  0  0  0  0  0  0  0  0  0
  -16.7354   19.4319  -42.3001 O   0  0  0  0  0  0  0  0  0  0  0  0
  -18.7538   20.0440  -41.5766 O   0  0  0  0  0  0  0  0  0  0  0  0
  -12.7461   18.0992  -41.1328 C   0  0  0  0  0  0  0  0  0  0  0  0
  -13.0249   18.6701  -42.4523 C   0  0  0  0  0  0  0  0  0  0  0  0
  1  2  1  0
  2  3  2  0
  3  4  1  0
  4  5  2  0
  5  6  1  0
  6  7  1  0
  7  8  1  0
  8  9  2  0
  9 10  1  0
 10 11  2  0
 11 12  1  0
 12 13  2  0
 13 14  1  0
 14 15  2  0
 14 16  1  0
  6 17  2  0
 17 18  1  0
 17  2  1  0
 13  8  1  0
M  END
$$$$
