
     RDKit          3D

 26 28  0  0  0  0  0  0  0  0999 V2000
  -24.6109   22.3669  -38.2180 C   0  0  0  0  0  0  0  0  0  0  0  0
  -23.9021   21.1866  -37.6072 C   0  0  0  0  0  0  0  0  0  0  0  0
  -23.5695   21.5258  -36.1680 C   0  0  0  0  0  0  0  0  0  0  0  0
  -24.7902   19.9910  -37.6519 C   0  0  0  0  0  0  0  0  0  0  0  0
  -24.1403   18.7674  -37.0546 C   0  0  0  0  0  0  0  0  0  0  0  0
  -22.8387   18.4210  -37.7244 C   0  0  0  0  0  0  0  0  0  0  0  0
  -23.0711   17.3546  -38.7703 C   0  0  0  0  0  0  0  0  0  0  0  0
  -21.8514   17.8758  -36.7154 C   0  0  0  0  0  0  0  0  0  0  0  0
  -22.1893   19.5766  -38.3782 C   0  0  0  0  0  0  0  0  0  0  0  0
  -21.0063   19.2889  -39.0766 C   0  0  0  0  0  0  0  0  0  0  0  0
  -20.2985   20.2675  -39.7348 C   0  0  0  0  0  0  0  0  0  0  0  0
  -19.0888   19.9908  -40.4528 N   0  0  0  0  0  0  0  0  0  0  0  0
  -17.9668   19.4416  -39.8082 C   0  0  0  0  0  0  0  0  0  0  0  0
  -18.0972   19.0396  -38.6306 O   0  0  0  0  0  0  0  0  0  0  0  0
  -16.6942   19.3353  -40.4660 C   0  0  0  0  0  0  0  0  0  0  0  0
  -16.4924   19.5709  -41.8056 C   0  0  0  0  0  0  0  0  0  0  0  0
  -15.2622   19.4611  -42.4072 C   0  0  0  0  0  0  0  0  0  0  0  0
  -14.1778   19.1010  -41.6494 C   0  0  0  0  0  0  0  0  0  0  0  0
  -12.8537   18.9721  -42.2445 C   0  0  0  0  0  0  0  0  0  0  0  0
  -12.5576   19.6381  -43.2654 O   0  0  0  0  0  0  0  0  0  0  0  0
  -11.9097   18.1241  -41.7027 O   0  0  0  0  0  0  0  0  0  0  0  0
  -14.3073   18.8459  -40.2814 C   0  0  0  0  0  0  0  0  0  0  0  0
  -15.5623   18.9716  -39.7346 C   0  0  0  0  0  0  0  0  0  0  0  0
  -20.7846   21.5550  -39.6918 C   0  0  0  0  0  0  0  0  0  0  0  0
  -21.9397   21.8455  -39.0116 C   0  0  0  0  0  0  0  0  0  0  0  0
  -22.6543   20.8619  -38.3480 C   0  0  0  0  0  0  0  0  0  0  0  0
  1  2  1  0
  2  3  1  0
  2  4  1  0
  4  5  1  0
  5  6  1  0
  6  7  1  0
  6  8  1  0
  6  9  1  0
  9 10  2  0
 10 11  1  0
 11 12  1  0
 12 13  1  0
 13 14  2  0
 13 15  1  0
 15 16  2  0
 16 17  1  0
 17 18  2  0
 18 19  1  0
 19 20  2  0
 19 21  1  0
 18 22  1  0
 22 23  2  0
 11 24  2  0
 24 25  1  0
 25 26  2  0
 26  2  1  0
 26  9  1  0
 23 15  1  0
M  END
$$$$
