
     RDKit          3D

 17 17  0  0  0  0  0  0  0  0999 V2000
  -19.1172   35.3152  -21.9435 Cl  0  0  0  0  0  0  0  0  0  0  0  0
  -17.0963   33.3500  -24.3385 N   0  0  0  0  0  0  0  0  0  0  0  0
  -17.9053   32.9968  -23.4200 C   0  0  0  0  0  0  0  0  0  0  0  0
  -17.8639   31.6916  -22.6750 C   0  0  0  0  0  0  0  0  0  0  0  0
  -19.2946   31.5523  -22.2293 C   0  0  0  0  0  0  0  0  0  0  0  0
  -19.6275   33.0020  -21.8638 C   0  0  0  0  0  0  0  0  0  0  0  0
  -18.9887   33.7529  -22.9248 N   0  0  0  0  0  0  0  0  0  0  0  0
  -19.4063   35.0464  -23.3867 C   0  0  0  0  0  0  0  0  0  0  0  0
  -19.3940   36.0648  -22.3044 C   0  0  0  0  0  0  0  0  0  0  0  0
  -20.5234   36.4829  -21.7083 N   0  0  0  0  0  0  0  0  0  0  0  0
  -20.5452   37.4051  -20.7215 C   0  0  0  0  0  0  0  0  0  0  0  0
  -21.6310   37.7739  -20.1836 O   0  0  0  0  0  0  0  0  0  0  0  0
  -19.3849   37.9353  -20.3102 N   0  0  0  0  0  0  0  0  0  0  0  0
  -18.2116   37.5793  -20.8459 C   0  0  0  0  0  0  0  0  0  0  0  0
  -17.1557   38.1016  -20.4292 O   0  0  0  0  0  0  0  0  0  0  0  0
  -18.2217   36.6365  -21.8506 C   0  0  0  0  0  0  0  0  0  0  0  0
  -16.6774   36.1895  -22.5350 Cl  0  0  0  0  0  0  0  0  0  0  0  0
  2  3  2  0
  3  4  1  0
  4  5  1  0
  5  6  1  0
  6  7  1  0
  7  8  1  0
  8  9  1  0
  9 10  1  0
 10 11  1  0
 11 12  2  0
 11 13  1  0
 13 14  1  0
 14 15  2  0
 14 16  1  0
 16 17  1  0
  7  3  1  0
 16  9  2  0
M  END
$$$$
