
     RDKit          3D

 23 25  0  0  0  0  0  0  0  0999 V2000
  -20.5872   32.1392  -22.1385 C   0  0  0  0  0  0  0  0  0  0  0  0
  -21.0235   33.2960  -21.4653 O   0  0  0  0  0  0  0  0  0  0  0  0
  -20.2600   34.4450  -21.5288 C   0  0  0  0  0  0  0  0  0  0  0  0
  -18.8986   34.3692  -21.3189 C   0  0  0  0  0  0  0  0  0  0  0  0
  -18.3176   33.1309  -21.0459 O   0  0  0  0  0  0  0  0  0  0  0  0
  -18.1601   35.5290  -21.3878 C   0  0  0  0  0  0  0  0  0  0  0  0
  -18.7295   36.7599  -21.6580 C   0  0  0  0  0  0  0  0  0  0  0  0
  -20.0907   36.8380  -21.8682 C   0  0  0  0  0  0  0  0  0  0  0  0
  -20.8425   35.6856  -21.8024 C   0  0  0  0  0  0  0  0  0  0  0  0
  -22.2177   35.6768  -22.0014 O   0  0  0  0  0  0  0  0  0  0  0  0
  -20.7745   38.1229  -22.1637 C   0  0  2  0  0  0  0  0  0  0  0  0
  -21.7798   37.9304  -23.0928 O   0  0  0  0  0  0  0  0  0  0  0  0
  -22.4347   39.1121  -23.3318 C   0  0  2  0  0  0  0  0  0  0  0  0
  -23.7043   38.9333  -24.1331 C   0  0  0  0  0  0  0  0  0  0  0  0
  -24.4687   37.9301  -23.5082 O   0  0  0  0  0  0  0  0  0  0  0  0
  -21.5025   40.0858  -24.0169 C   0  0  1  0  0  0  0  0  0  0  0  0
  -22.1450   41.2349  -24.4447 O   0  0  0  0  0  0  0  0  0  0  0  0
  -20.3860   40.3796  -23.0352 C   0  0  2  0  0  0  0  0  0  0  0  0
  -19.4807   41.3027  -23.5433 O   0  0  0  0  0  0  0  0  0  0  0  0
  -19.7277   39.0426  -22.7638 C   0  0  1  0  0  0  0  0  0  0  0  0
  -18.5691   39.1513  -21.9978 O   0  0  0  0  0  0  0  0  0  0  0  0
  -17.8846   37.9746  -21.7193 C   0  0  0  0  0  0  0  0  0  0  0  0
  -16.6388   37.9204  -21.5296 O   0  0  0  0  0  0  0  0  0  0  0  0
  1  2  1  0
  2  3  1  0
  3  4  2  0
  4  5  1  0
  4  6  1  0
  6  7  2  0
  7  8  1  0
  8  9  2  0
  9 10  1  0
  8 11  1  0
 11 12  1  6
 12 13  1  0
 13 14  1  6
 14 15  1  0
 13 16  1  0
 16 17  1  1
 16 18  1  0
 18 19  1  6
 18 20  1  0
 20 21  1  1
 21 22  1  0
 22 23  2  0
  9  3  1  0
 20 11  1  0
 22  7  1  0
M  END
$$$$
