
     RDKit          3D

 54 59  0  0  0  0  0  0  0  0999 V2000
  -15.7891   23.4134  -32.7507 N   0  0  0  0  0  0  0  0  0  0  0  0
  -16.8946   22.5778  -33.1969 C   0  0  0  0  0  0  0  0  0  0  0  0
  -16.3706   21.1823  -33.3077 C   0  0  0  0  0  0  0  0  0  0  0  0
  -17.4481   20.1703  -33.6908 C   0  0  0  0  0  0  0  0  0  0  0  0
  -16.8355   18.8121  -33.9173 C   0  0  0  0  0  0  0  0  0  0  0  0
  -17.8394   17.7614  -34.3352 C   0  0  2  0  0  0  0  0  0  0  0  0
  -18.6092   18.2406  -35.4943 N   0  0  0  0  0  0  0  0  0  0  0  0
  -19.6393   17.4858  -36.0453 C   0  0  0  0  0  0  0  0  0  0  0  0
  -19.8718   16.3706  -35.4293 O   0  0  0  0  0  0  0  0  0  0  0  0
  -20.4615   17.7970  -37.1920 C   0  0  1  0  0  0  0  0  0  0  0  0
  -21.8932   18.1360  -37.0042 C   0  0  0  0  0  0  0  0  0  0  0  0
  -22.7611   17.2133  -36.2886 C   0  0  0  0  0  0  0  0  0  0  0  0
  -22.8479   15.8615  -36.6550 C   0  0  0  0  0  0  0  0  0  0  0  0
  -23.7189   15.0290  -36.0135 C   0  0  0  0  0  0  0  0  0  0  0  0
  -23.8222   13.1858  -36.5378 Br  0  0  0  0  0  0  0  0  0  0  0  0
  -24.5487   15.4328  -34.9963 C   0  0  0  0  0  0  0  0  0  0  0  0
  -25.4392   14.5879  -34.3386 O   0  0  0  0  0  0  0  0  0  0  0  0
  -24.4480   16.7762  -34.6472 C   0  0  0  0  0  0  0  0  0  0  0  0
  -25.6002   17.3804  -33.2492 Br  0  0  0  0  0  0  0  0  0  0  0  0
  -23.5787   17.6383  -35.2758 C   0  0  0  0  0  0  0  0  0  0  0  0
  -19.8164   18.8535  -38.0171 N   0  0  0  0  0  0  0  0  0  0  0  0
  -20.3925   19.1268  -39.2826 C   0  0  0  0  0  0  0  0  0  0  0  0
  -21.3159   18.3678  -39.7009 O   0  0  0  0  0  0  0  0  0  0  0  0
  -19.9986   20.2098  -40.1217 N   0  0  0  0  0  0  0  0  0  0  0  0
  -20.5918   20.3750  -41.4211 C   0  0  0  0  0  0  0  0  0  0  0  0
  -19.5539   21.0728  -42.3005 C   0  0  0  0  0  0  0  0  0  0  0  0
  -19.4437   22.4773  -41.7611 C   0  0  0  0  0  0  0  0  0  0  0  0
  -18.4244   23.2391  -42.5410 N   0  0  0  0  0  0  0  0  0  0  0  0
  -17.1848   22.5895  -42.8420 C   0  0  0  0  0  0  0  0  0  0  0  0
  -16.3754   23.3216  -43.8188 C   0  0  0  0  0  0  0  0  0  0  0  0
  -15.2242   22.6975  -44.3117 C   0  0  0  0  0  0  0  0  0  0  0  0
  -14.4188   23.3418  -45.1759 C   0  0  0  0  0  0  0  0  0  0  0  0
  -14.6959   24.6239  -45.6023 C   0  0  0  0  0  0  0  0  0  0  0  0
  -15.8202   25.2412  -45.1260 C   0  0  0  0  0  0  0  0  0  0  0  0
  -16.6507   24.5844  -44.2389 C   0  0  0  0  0  0  0  0  0  0  0  0
  -17.8503   25.2657  -43.8145 N   0  0  0  0  0  0  0  0  0  0  0  0
  -18.7063   24.5492  -42.9610 C   0  0  0  0  0  0  0  0  0  0  0  0
  -19.7960   25.0648  -42.5211 O   0  0  0  0  0  0  0  0  0  0  0  0
  -19.1561   22.5097  -40.2946 C   0  0  0  0  0  0  0  0  0  0  0  0
  -19.0020   21.1550  -39.6860 C   0  0  0  0  0  0  0  0  0  0  0  0
  -18.7910   17.5591  -33.2293 C   0  0  0  0  0  0  0  0  0  0  0  0
  -18.5611   16.6322  -32.3615 O   0  0  0  0  0  0  0  0  0  0  0  0
  -19.9702   18.2958  -33.0024 N   0  0  0  0  0  0  0  0  0  0  0  0
  -21.0208   17.8206  -32.1628 C   0  0  0  0  0  0  0  0  0  0  0  0
  -21.4559   18.8112  -31.1251 C   0  0  0  0  0  0  0  0  0  0  0  0
  -20.8861   20.1327  -31.2996 N   0  0  0  0  0  0  0  0  0  0  0  0
  -21.0301   21.0396  -30.2142 C   0  0  0  0  0  0  0  0  0  0  0  0
  -20.7238   22.3758  -30.3407 C   0  0  0  0  0  0  0  0  0  0  0  0
  -20.9026   23.1922  -29.2431 C   0  0  0  0  0  0  0  0  0  0  0  0
  -21.3583   22.6912  -28.1011 N   0  0  0  0  0  0  0  0  0  0  0  0
  -21.6732   21.3968  -27.9216 C   0  0  0  0  0  0  0  0  0  0  0  0
  -21.5024   20.5635  -29.0042 C   0  0  0  0  0  0  0  0  0  0  0  0
  -20.1921   20.5902  -32.4804 C   0  0  0  0  0  0  0  0  0  0  0  0
  -20.1749   19.6134  -33.6113 C   0  0  0  0  0  0  0  0  0  0  0  0
  1  2  1  0
  2  3  1  0
  3  4  1  0
  4  5  1  0
  6  5  1  1
  6  7  1  0
  7  8  1  0
  8  9  2  0
  8 10  1  0
 10 11  1  1
 11 12  1  0
 12 13  2  0
 13 14  1  0
 14 15  1  0
 14 16  2  0
 16 17  1  0
 16 18  1  0
 18 19  1  0
 18 20  2  0
 10 21  1  0
 21 22  1  0
 22 23  2  0
 22 24  1  0
 24 25  1  0
 25 26  1  0
 26 27  1  0
 27 28  1  0
 28 29  1  0
 29 30  1  0
 30 31  2  0
 31 32  1  0
 32 33  2  0
 33 34  1  0
 34 35  2  0
 35 36  1  0
 36 37  1  0
 37 38  2  0
 27 39  1  0
 39 40  1  0
  6 41  1  0
 41 42  2  0
 41 43  1  0
 43 44  1  0
 44 45  1  0
 45 46  1  0
 46 47  1  0
 47 48  2  0
 48 49  1  0
 49 50  2  0
 50 51  1  0
 51 52  2  0
 46 53  1  0
 53 54  1  0
 20 12  1  0
 40 24  1  0
 54 43  1  0
 37 28  1  0
 52 47  1  0
 35 30  1  0
M  END
$$$$
