
     RDKit          3D

 26 30  0  0  0  0  0  0  0  0999 V2000
  -21.8234   43.0269  -26.8815 C   0  0  0  0  0  0  0  0  0  0  0  0
  -21.1945   42.6758  -25.6443 N   0  0  0  0  0  0  0  0  0  0  0  0
  -21.2404   41.4626  -25.0673 C   0  0  0  0  0  0  0  0  0  0  0  0
  -20.5054   41.5855  -23.9087 C   0  0  0  0  0  0  0  0  0  0  0  0
  -20.2519   40.5321  -22.9188 C   0  0  0  0  0  0  0  0  0  0  0  0
  -20.9684   39.3455  -22.9607 C   0  0  0  0  0  0  0  0  0  0  0  0
  -20.7202   38.3663  -22.0260 C   0  0  0  0  0  0  0  0  0  0  0  0
  -19.7533   38.6209  -21.0784 C   0  0  0  0  0  0  0  0  0  0  0  0
  -19.2662   37.9123  -20.0472 N   0  0  0  0  0  0  0  0  0  0  0  0
  -18.3303   38.6241  -19.4378 N   0  0  0  0  0  0  0  0  0  0  0  0
  -18.1923   39.7988  -20.0560 C   0  0  0  0  0  0  0  0  0  0  0  0
  -17.0850   41.1494  -19.6716 S   0  0  0  0  0  0  0  0  0  0  0  0
  -18.1212   42.6007  -19.4059 C   0  0  0  0  0  0  0  0  0  0  0  0
  -18.1847   43.6106  -20.3317 C   0  0  0  0  0  0  0  0  0  0  0  0
  -18.9933   44.7017  -20.0820 C   0  0  0  0  0  0  0  0  0  0  0  0
  -19.7448   44.8126  -18.9259 C   0  0  0  0  0  0  0  0  0  0  0  0
  -20.5254   45.8849  -18.7043 N   0  0  0  0  0  0  0  0  0  0  0  0
  -21.2586   45.9816  -17.5646 C   0  0  0  0  0  0  0  0  0  0  0  0
  -21.2417   45.0039  -16.5928 C   0  0  0  0  0  0  0  0  0  0  0  0
  -20.4317   43.9010  -16.8329 C   0  0  0  0  0  0  0  0  0  0  0  0
  -19.6807   43.7897  -17.9878 C   0  0  0  0  0  0  0  0  0  0  0  0
  -18.8665   42.7085  -18.2571 C   0  0  0  0  0  0  0  0  0  0  0  0
  -19.0772   39.7936  -21.0741 N   0  0  0  0  0  0  0  0  0  0  0  0
  -19.3228   40.7202  -21.9708 N   0  0  0  0  0  0  0  0  0  0  0  0
  -20.0393   42.8798  -23.8291 C   0  0  0  0  0  0  0  0  0  0  0  0
  -20.4815   43.5130  -24.9070 N   0  0  0  0  0  0  0  0  0  0  0  0
  1  2  1  0
  2  3  1  0
  3  4  2  0
  4  5  1  0
  5  6  1  0
  6  7  2  0
  7  8  1  0
  8  9  2  0
  9 10  1  0
 10 11  2  0
 11 12  1  0
 12 13  1  0
 13 14  2  0
 14 15  1  0
 15 16  2  0
 16 17  1  0
 17 18  2  0
 18 19  1  0
 19 20  2  0
 20 21  1  0
 21 22  2  0
 11 23  1  0
 23 24  1  0
  4 25  1  0
 25 26  2  0
 26  2  1  0
 24  5  2  0
 23  8  1  0
 22 13  1  0
 21 16  1  0
M  END
$$$$
