
     RDKit          3D

 45 50  0  0  0  0  0  0  0  0999 V2000
   -4.6057   25.7135  -10.6307 C   0  0  0  0  0  0  0  0  0  0  0  0
   -3.2580   25.9458  -10.1942 N   0  0  0  0  0  0  0  0  0  0  0  0
   -2.8024   24.9480   -9.2418 C   0  0  0  0  0  0  0  0  0  0  0  0
   -3.0058   27.2902   -9.7194 C   0  0  0  0  0  0  0  0  0  0  0  0
   -3.3726   27.5192   -8.2882 C   0  0  0  0  0  0  0  0  0  0  0  0
   -4.5178   28.4508   -8.0722 C   0  0  0  0  0  0  0  0  0  0  0  0
   -4.5208   29.6145   -8.9247 N   0  0  0  0  0  0  0  0  0  0  0  0
   -5.3471   30.7357   -8.6373 C   0  0  0  0  0  0  0  0  0  0  0  0
   -5.9350   30.7512   -7.5024 O   0  0  0  0  0  0  0  0  0  0  0  0
   -5.5614   31.8446   -9.5342 C   0  0  0  0  0  0  0  0  0  0  0  0
   -4.5645   32.1983  -10.4359 C   0  0  0  0  0  0  0  0  0  0  0  0
   -4.7249   33.2400  -11.3135 C   0  0  0  0  0  0  0  0  0  0  0  0
   -5.8942   33.9859  -11.3351 C   0  0  0  0  0  0  0  0  0  0  0  0
   -6.0031   35.0383  -12.2653 N   0  0  0  0  0  0  0  0  0  0  0  0
   -6.3198   36.4045  -11.8843 C   0  0  0  0  0  0  0  0  0  0  0  0
   -7.1242   36.5469  -10.9429 O   0  0  0  0  0  0  0  0  0  0  0  0
   -5.7201   37.4604  -12.5762 N   0  0  0  0  0  0  0  0  0  0  0  0
   -6.2348   38.7785  -12.5936 C   0  0  0  0  0  0  0  0  0  0  0  0
   -5.4710   39.7706  -13.2372 C   0  0  0  0  0  0  0  0  0  0  0  0
   -5.8518   41.0763  -13.3152 C   0  0  0  0  0  0  0  0  0  0  0  0
   -7.0446   41.4793  -12.7422 C   0  0  0  0  0  0  0  0  0  0  0  0
   -7.4945   42.8616  -12.7921 C   0  0  0  0  0  0  0  0  0  0  0  0
   -8.7998   43.1907  -12.7925 N   0  0  0  0  0  0  0  0  0  0  0  0
   -9.2396   44.4479  -12.8317 C   0  0  0  0  0  0  0  0  0  0  0  0
  -10.6220   44.7875  -12.8314 N   0  0  0  0  0  0  0  0  0  0  0  0
  -11.0334   46.1707  -13.0257 C   0  0  0  0  0  0  0  0  0  0  0  0
  -12.1145   46.4742  -11.9999 C   0  0  0  0  0  0  0  0  0  0  0  0
  -13.1515   45.5553  -12.1561 O   0  0  0  0  0  0  0  0  0  0  0  0
  -12.7797   44.2934  -11.7584 C   0  0  0  0  0  0  0  0  0  0  0  0
  -11.6600   43.7984  -12.6452 C   0  0  0  0  0  0  0  0  0  0  0  0
   -8.3297   45.4404  -12.8728 N   0  0  0  0  0  0  0  0  0  0  0  0
   -7.0137   45.1820  -12.8753 C   0  0  0  0  0  0  0  0  0  0  0  0
   -6.0549   46.2513  -12.9178 N   0  0  0  0  0  0  0  0  0  0  0  0
   -6.5226   47.5888  -13.1311 C   0  0  0  0  0  0  0  0  0  0  0  0
   -5.6269   48.5647  -12.3597 C   0  0  0  0  0  0  0  0  0  0  0  0
   -4.3210   48.3689  -12.8375 O   0  0  0  0  0  0  0  0  0  0  0  0
   -3.8628   47.1652  -12.2595 C   0  0  0  0  0  0  0  0  0  0  0  0
   -4.6412   45.9816  -12.7490 C   0  0  0  0  0  0  0  0  0  0  0  0
   -6.6127   43.8980  -12.8351 N   0  0  0  0  0  0  0  0  0  0  0  0
   -7.8069   40.5481  -12.1132 C   0  0  0  0  0  0  0  0  0  0  0  0
   -7.4055   39.2054  -12.0388 C   0  0  0  0  0  0  0  0  0  0  0  0
   -6.8738   33.6350  -10.4449 C   0  0  0  0  0  0  0  0  0  0  0  0
   -6.7104   32.5774   -9.5550 C   0  0  0  0  0  0  0  0  0  0  0  0
   -3.6836   29.6611  -10.0855 C   0  0  0  0  0  0  0  0  0  0  0  0
   -3.6922   28.2476  -10.6662 C   0  0  0  0  0  0  0  0  0  0  0  0
  1  2  1  0
  2  3  1  0
  2  4  1  0
  4  5  1  0
  5  6  1  0
  6  7  1  0
  7  8  1  0
  8  9  2  0
  8 10  1  0
 10 11  2  0
 11 12  1  0
 12 13  2  0
 13 14  1  0
 14 15  1  0
 15 16  2  0
 15 17  1  0
 17 18  1  0
 18 19  2  0
 19 20  1  0
 20 21  2  0
 21 22  1  0
 22 23  2  0
 23 24  1  0
 24 25  1  0
 25 26  1  0
 26 27  1  0
 27 28  1  0
 28 29  1  0
 29 30  1  0
 24 31  2  0
 31 32  1  0
 32 33  1  0
 33 34  1  0
 34 35  1  0
 35 36  1  0
 36 37  1  0
 37 38  1  0
 32 39  2  0
 21 40  1  0
 40 41  2  0
 13 42  1  0
 42 43  2  0
  7 44  1  0
 44 45  1  0
 45  4  1  0
 43 10  1  0
 41 18  1  0
 39 22  1  0
 30 25  1  0
 38 33  1  0
M  END
$$$$
