
     RDKit          3D

 15 16  0  0  0  0  0  0  0  0999 V2000
  -15.7738   44.9315  -19.0839 C   0  0  0  0  0  0  0  0  0  0  0  0
  -16.4710   44.1923  -20.1969 C   0  0  0  0  0  0  0  0  0  0  0  0
  -15.9817   44.1715  -21.3538 O   0  0  0  0  0  0  0  0  0  0  0  0
  -17.6863   43.5009  -19.9923 N   0  0  0  0  0  0  0  0  0  0  0  0
  -18.5489   43.1734  -21.0895 C   0  0  0  0  0  0  0  0  0  0  0  0
  -18.0998   41.9782  -21.8685 C   0  0  0  0  0  0  0  0  0  0  0  0
  -19.0293   40.8521  -21.5356 C   0  0  0  0  0  0  0  0  0  0  0  0
  -20.2791   40.9042  -20.9607 C   0  0  0  0  0  0  0  0  0  0  0  0
  -20.7884   39.6750  -20.8280 N   0  0  0  0  0  0  0  0  0  0  0  0
  -19.8617   38.8248  -21.3202 C   0  0  0  0  0  0  0  0  0  0  0  0
  -19.9331   37.4454  -21.3996 C   0  0  0  0  0  0  0  0  0  0  0  0
  -18.8632   36.7634  -21.9436 C   0  0  0  0  0  0  0  0  0  0  0  0
  -17.7468   37.4203  -22.4000 C   0  0  0  0  0  0  0  0  0  0  0  0
  -17.7100   38.8063  -22.3042 C   0  0  0  0  0  0  0  0  0  0  0  0
  -18.7606   39.5163  -21.7668 C   0  0  0  0  0  0  0  0  0  0  0  0
  1  2  1  0
  2  3  2  0
  2  4  1  0
  4  5  1  0
  5  6  1  0
  6  7  1  0
  7  8  2  0
  8  9  1  0
  9 10  1  0
 10 11  2  0
 11 12  1  0
 12 13  2  0
 13 14  1  0
 14 15  2  0
 15  7  1  0
 15 10  1  0
M  END
$$$$
