
     RDKit          3D

 27 29  0  0  0  0  0  0  0  0999 V2000
  -25.0075   23.9975  -26.7252 C   0  0  0  0  0  0  0  0  0  0  0  0
  -25.3683   24.5333  -28.0478 C   0  0  0  0  0  0  0  0  0  0  0  0
  -25.2066   25.8457  -28.4329 C   0  0  0  0  0  0  0  0  0  0  0  0
  -24.5216   26.9618  -27.2656 Cl  0  0  0  0  0  0  0  0  0  0  0  0
  -25.5652   26.2855  -29.6886 C   0  0  0  0  0  0  0  0  0  0  0  0
  -26.1012   25.4154  -30.6042 C   0  0  0  0  0  0  0  0  0  0  0  0
  -26.2750   24.0830  -30.2401 C   0  0  0  0  0  0  0  0  0  0  0  0
  -25.9136   23.6615  -28.9874 C   0  0  0  0  0  0  0  0  0  0  0  0
  -26.1208   21.9969  -28.5496 S   0  0  0  0  0  6  0  0  0  0  0  0
  -27.1692   21.8698  -27.5042 O   0  0  0  0  0  0  0  0  0  0  0  0
  -26.5850   21.1853  -29.7359 O   0  0  0  0  0  0  0  0  0  0  0  0
  -24.6253   21.3501  -27.9905 N   0  0  0  0  0  0  0  0  0  0  0  0
  -23.4177   21.4115  -28.8093 C   0  0  0  0  0  0  0  0  0  0  0  0
  -22.3416   20.9923  -28.8918 N   0  0  0  0  0  0  0  0  0  0  0  0
  -21.4047   21.2040  -29.7832 C   0  0  0  0  0  0  0  0  0  0  0  0
  -20.0084   20.6279  -29.8360 C   0  0  0  0  0  0  0  0  0  0  0  0
  -19.9883   19.4403  -30.7350 C   0  0  0  0  0  0  0  0  0  0  0  0
  -21.0277   19.1269  -31.3774 O   0  0  0  0  0  0  0  0  0  0  0  0
  -18.8290   18.6395  -30.8970 N   0  0  0  0  0  0  0  0  0  0  0  0
  -18.9235   17.4658  -31.7117 C   0  0  0  0  0  0  0  0  0  0  0  0
  -17.6955   17.1634  -32.5229 C   0  0  0  0  0  0  0  0  0  0  0  0
  -16.5087   17.7953  -32.0612 N   0  0  0  0  0  0  0  0  0  0  0  0
  -16.0819   18.9040  -32.8890 C   0  0  0  0  0  0  0  0  0  0  0  0
  -16.5079   18.1163  -30.6604 C   0  0  0  0  0  0  0  0  0  0  0  0
  -17.6165   19.0253  -30.2475 C   0  0  0  0  0  0  0  0  0  0  0  0
  -21.7937   22.0898  -30.7972 C   0  0  0  0  0  0  0  0  0  0  0  0
  -23.4710   22.5186  -30.3495 S   0  0  0  0  0  0  0  0  0  0  0  0
  1  2  1  0
  2  3  2  0
  3  4  1  0
  3  5  1  0
  5  6  2  0
  6  7  1  0
  7  8  2  0
  8  9  1  0
  9 10  2  0
  9 11  2  0
  9 12  1  0
 12 13  1  0
 13 14  2  0
 14 15  1  0
 15 16  1  0
 16 17  1  0
 17 18  2  0
 17 19  1  0
 19 20  1  0
 20 21  1  0
 21 22  1  0
 22 23  1  0
 22 24  1  0
 24 25  1  0
 15 26  2  0
 26 27  1  0
  8  2  1  0
 27 13  1  0
 25 19  1  0
M  END
$$$$
