
     RDKit          3D

 14 15  0  0  0  0  0  0  0  0999 V2000
  -27.7525   27.4149  -33.7326 O   0  0  0  0  0  0  0  0  0  0  0  0
  -28.5023   26.7210  -34.4848 N   0  0  0  0  0  4  0  0  0  0  0  0
  -29.8300   26.9221  -34.4447 O   0  0  0  0  0  1  0  0  0  0  0  0
  -27.8720   25.7809  -35.3159 C   0  0  0  0  0  0  0  0  0  0  0  0
  -26.4611   25.6997  -35.2542 C   0  0  0  0  0  0  0  0  0  0  0  0
  -25.8138   24.8009  -36.0512 C   0  0  0  0  0  0  0  0  0  0  0  0
  -26.5323   23.9937  -36.8953 C   0  0  0  0  0  0  0  0  0  0  0  0
  -25.8510   23.0952  -37.6872 O   0  0  0  0  0  0  0  0  0  0  0  0
  -27.9173   24.0642  -36.9662 C   0  0  0  0  0  0  0  0  0  0  0  0
  -28.5973   23.2707  -37.8105 N   0  0  0  0  0  0  0  0  0  0  0  0
  -29.9561   23.3178  -37.9166 C   0  0  0  0  0  0  0  0  0  0  0  0
  -30.6788   24.1959  -37.1492 C   0  0  0  0  0  0  0  0  0  0  0  0
  -29.9710   25.0097  -36.2829 C   0  0  0  0  0  0  0  0  0  0  0  0
  -28.5919   24.9807  -36.1550 C   0  0  0  0  0  0  0  0  0  0  0  0
  1  2  2  0
  2  3  1  0
  2  4  1  0
  4  5  2  0
  5  6  1  0
  6  7  2  0
  7  8  1  0
  7  9  1  0
  9 10  2  0
 10 11  1  0
 11 12  2  0
 12 13  1  0
 13 14  2  0
 14  4  1  0
 14  9  1  0
M  CHG  2   2   1   3  -1
M  END
$$$$
