
     RDKit          3D

 22 23  0  0  0  0  0  0  0  0999 V2000
  -19.4601   40.2830  -21.7007 Cl  0  0  0  0  0  0  0  0  0  0  0  0
  -18.4794   37.5231  -20.9534 O   0  0  0  0  0  0  0  0  0  0  0  0
  -18.5661   38.7890  -21.7548 S   0  0  0  0  0  6  0  0  0  0  0  0
  -17.4142   38.7801  -22.7145 O   0  0  0  0  0  0  0  0  0  0  0  0
  -18.4334   40.1444  -20.7192 C   0  0  0  0  0  0  0  0  0  0  0  0
  -18.2961   39.9666  -19.3648 C   0  0  0  0  0  0  0  0  0  0  0  0
  -18.1844   41.0293  -18.4792 C   0  0  0  0  0  0  0  0  0  0  0  0
  -18.2107   42.3154  -18.9612 C   0  0  0  0  0  0  0  0  0  0  0  0
  -18.3498   42.4931  -20.3324 C   0  0  0  0  0  0  0  0  0  0  0  0
  -18.3817   43.7781  -20.8678 C   0  0  0  0  0  0  0  0  0  0  0  0
  -18.2200   45.4435  -19.6070 I   0  0  0  0  0  0  0  0  0  0  0  0
  -18.5193   43.9690  -22.2269 C   0  0  0  0  0  0  0  0  0  0  0  0
  -18.6264   42.8822  -23.0652 C   0  0  0  0  0  0  0  0  0  0  0  0
  -18.5997   41.5992  -22.5792 C   0  0  0  0  0  0  0  0  0  0  0  0
  -18.4604   41.4197  -21.2064 C   0  0  0  0  0  0  0  0  0  0  0  0
  -20.0266   38.7319  -22.6608 N   0  0  0  0  0  0  0  0  0  0  0  0
  -21.1937   38.6500  -21.9061 C   0  0  0  0  0  0  0  0  0  0  0  0
  -22.3704   37.9660  -22.5249 C   0  0  0  0  0  0  0  0  0  0  0  0
  -22.0702   36.6096  -23.0647 C   0  0  0  0  0  0  0  0  0  0  0  0
  -21.7893   36.6925  -24.4589 N   0  0  0  0  0  0  0  0  0  0  0  0
  -20.9360   37.7991  -24.7529 C   0  0  0  0  0  0  0  0  0  0  0  0
  -19.8332   37.8446  -23.7419 C   0  0  0  0  0  0  0  0  0  0  0  0
  2  3  2  0
  3  4  2  0
  3  5  1  0
  5  6  2  0
  6  7  1  0
  7  8  2  0
  8  9  1  0
  9 10  2  0
 10 11  1  0
 10 12  1  0
 12 13  2  0
 13 14  1  0
 14 15  2  0
  3 16  1  0
 16 17  1  0
 17 18  1  0
 18 19  1  0
 19 20  1  0
 20 21  1  0
 21 22  1  0
 15  5  1  0
 22 16  1  0
 15  9  1  0
M  END
$$$$
