
     RDKit          3D

 10 10  0  0  0  0  0  0  0  0999 V2000
  -19.8861   37.3164  -23.0490 C   0  0  0  0  0  0  0  0  0  0  0  0
  -19.6593   38.6421  -22.6473 O   0  0  0  0  0  0  0  0  0  0  0  0
  -19.4187   39.0441  -21.3611 C   0  0  0  0  0  0  0  0  0  0  0  0
  -19.9702   38.3945  -20.4353 O   0  0  0  0  0  0  0  0  0  0  0  0
  -18.5650   40.1750  -21.0078 C   0  0  0  0  0  0  0  0  0  0  0  0
  -17.9458   40.9285  -21.9819 C   0  0  0  0  0  0  0  0  0  0  0  0
  -17.1256   42.0143  -21.6548 C   0  0  0  0  0  0  0  0  0  0  0  0
  -16.9310   42.3398  -20.3293 C   0  0  0  0  0  0  0  0  0  0  0  0
  -17.5394   41.5988  -19.3888 N   0  0  0  0  0  0  0  0  0  0  0  0
  -18.3385   40.5414  -19.6977 C   0  0  0  0  0  0  0  0  0  0  0  0
  1  2  1  0
  2  3  1  0
  3  4  2  0
  3  5  1  0
  5  6  2  0
  6  7  1  0
  7  8  2  0
  8  9  1  0
  9 10  2  0
 10  5  1  0
M  END
$$$$
