
     RDKit          3D

 42 45  0  0  0  0  0  0  0  0999 V2000
  -16.7782   16.8137  -28.2755 C   0  0  0  0  0  0  0  0  0  0  0  0
  -16.7965   15.9671  -29.4051 O   0  0  0  0  0  0  0  0  0  0  0  0
  -16.7371   16.4631  -30.7091 C   0  0  0  0  0  0  0  0  0  0  0  0
  -16.4520   15.6777  -31.7902 C   0  0  0  0  0  0  0  0  0  0  0  0
  -16.4020   16.2121  -33.0819 C   0  0  0  0  0  0  0  0  0  0  0  0
  -16.6380   17.5507  -33.3102 C   0  0  0  0  0  0  0  0  0  0  0  0
  -16.5791   18.0725  -34.6665 C   0  0  0  0  0  0  0  0  0  0  0  0
  -17.8674   18.1843  -35.3842 C   0  0  2  0  0  0  0  0  0  0  0  0
  -17.7823   18.6829  -36.7423 N   0  0  0  0  0  0  0  0  0  0  0  0
  -17.7219   17.8293  -37.8766 C   0  0  0  0  0  0  0  0  0  0  0  0
  -18.6552   17.0087  -38.0818 O   0  0  0  0  0  0  0  0  0  0  0  0
  -16.5960   17.8631  -38.8421 C   0  0  2  0  0  0  0  0  0  0  0  0
  -15.2513   17.8162  -38.1556 C   0  0  0  0  0  0  0  0  0  0  0  0
  -16.7001   18.9948  -39.7412 N   0  0  0  0  0  0  0  0  0  0  0  0
  -17.8847   19.1939  -40.4866 C   0  0  0  0  0  0  0  0  0  0  0  0
  -18.7108   18.2090  -40.5406 O   0  0  0  0  0  0  0  0  0  0  0  0
  -18.2568   20.4111  -41.2066 C   0  0  0  0  0  0  0  0  0  0  0  0
  -19.5503   20.9509  -40.9311 N   0  0  0  0  0  0  0  0  0  0  0  0
  -19.4889   21.6941  -39.6729 C   0  0  0  0  0  0  0  0  0  0  0  0
  -18.7661   22.9903  -39.7634 C   0  0  0  0  0  0  0  0  0  0  0  0
  -19.5037   23.7959  -40.6665 O   0  0  0  0  0  0  0  0  0  0  0  0
  -19.2698   23.2125  -41.9094 C   0  0  0  0  0  0  0  0  0  0  0  0
  -19.9902   21.8932  -41.9554 C   0  0  0  0  0  0  0  0  0  0  0  0
  -18.9190   18.9054  -34.6061 C   0  0  0  0  0  0  0  0  0  0  0  0
  -18.5999   19.9731  -34.0437 O   0  0  0  0  0  0  0  0  0  0  0  0
  -20.2441   18.4433  -34.4736 N   0  0  0  0  0  0  0  0  0  0  0  0
  -21.2758   19.2439  -33.7392 C   0  0  1  0  0  0  0  0  0  0  0  0
  -22.6098   18.6248  -34.0518 C   0  0  0  0  0  0  0  0  0  0  0  0
  -22.9611   18.7542  -35.4624 C   0  0  0  0  0  0  0  0  0  0  0  0
  -22.5430   17.8235  -36.4225 C   0  0  0  0  0  0  0  0  0  0  0  0
  -22.8549   17.9440  -37.7520 C   0  0  0  0  0  0  0  0  0  0  0  0
  -23.6067   19.0076  -38.2006 C   0  0  0  0  0  0  0  0  0  0  0  0
  -24.0331   19.9388  -37.2820 C   0  0  0  0  0  0  0  0  0  0  0  0
  -23.7139   19.8066  -35.9520 C   0  0  0  0  0  0  0  0  0  0  0  0
  -20.9209   19.1036  -32.3120 C   0  0  0  0  0  0  0  0  0  0  0  0
  -20.8937   17.9518  -31.8475 O   0  0  0  0  0  0  0  0  0  0  0  0
  -20.5877   20.1916  -31.3800 C   0  0  1  0  0  0  0  0  0  0  0  0
  -19.5412   21.2196  -31.7645 C   0  0  0  0  0  0  0  0  0  0  0  0
  -21.6107   20.6397  -30.4155 C   0  0  0  0  0  0  0  0  0  0  0  0
  -20.5901   19.7782  -30.0341 O   0  0  0  0  0  0  0  0  0  0  0  0
  -16.9219   18.3075  -32.1945 C   0  0  0  0  0  0  0  0  0  0  0  0
  -16.9781   17.8117  -30.9202 C   0  0  0  0  0  0  0  0  0  0  0  0
  1  2  1  0
  2  3  1  0
  3  4  2  0
  4  5  1  0
  5  6  2  0
  6  7  1  0
  8  7  1  1
  8  9  1  0
  9 10  1  0
 10 11  2  0
 10 12  1  0
 12 13  1  1
 12 14  1  0
 14 15  1  0
 15 16  2  0
 15 17  1  0
 17 18  1  0
 18 19  1  0
 19 20  1  0
 20 21  1  0
 21 22  1  0
 22 23  1  0
  8 24  1  0
 24 25  2  0
 24 26  1  0
 26 27  1  0
 27 28  1  1
 28 29  1  0
 29 30  2  0
 30 31  1  0
 31 32  2  0
 32 33  1  0
 33 34  2  0
 27 35  1  0
 35 36  2  0
 35 37  1  0
 37 38  1  6
 37 39  1  0
 39 40  1  0
  6 41  1  0
 41 42  2  0
 42  3  1  0
 23 18  1  0
 34 29  1  0
 40 37  1  0
M  END
$$$$
