
     RDKit          3D

 32 34  0  0  0  0  0  0  0  0999 V2000
   -8.3553   41.8238  -12.7810 C   0  0  0  0  0  0  0  0  0  0  0  0
   -8.8195   41.7319  -14.2028 C   0  0  0  0  0  0  0  0  0  0  0  0
  -10.2766   41.7061  -14.4224 C   0  0  0  0  0  0  0  0  0  0  0  0
  -10.7550   41.3586  -15.7859 C   0  0  0  0  0  0  0  0  0  0  0  0
  -12.2140   41.3496  -16.0251 C   0  0  0  0  0  0  0  0  0  0  0  0
  -12.6509   42.5693  -16.7336 N   0  0  0  0  0  0  0  0  0  0  0  0
  -13.7034   42.5842  -17.6799 C   0  0  0  0  0  0  0  0  0  0  0  0
  -14.4324   41.5612  -17.8185 O   0  0  0  0  0  0  0  0  0  0  0  0
  -13.9543   43.7276  -18.4758 N   0  0  0  0  0  0  0  0  0  0  0  0
  -13.0979   44.8750  -18.5631 C   0  0  0  0  0  0  0  0  0  0  0  0
  -13.5807   45.6853  -19.7355 C   0  0  0  0  0  0  0  0  0  0  0  0
  -14.8337   45.0282  -20.2622 C   0  0  0  0  0  0  0  0  0  0  0  0
  -15.9934   45.9338  -20.2756 C   0  0  0  0  0  0  0  0  0  0  0  0
  -17.2578   45.4758  -20.6525 N   0  0  0  0  0  0  0  0  0  0  0  0
  -17.5185   45.4023  -22.0393 C   0  0  0  0  0  0  0  0  0  0  0  0
  -18.1156   46.6357  -22.6238 C   0  0  0  0  0  0  0  0  0  0  0  0
  -19.5008   46.6161  -22.7855 C   0  0  0  0  0  0  0  0  0  0  0  0
  -20.1339   47.7187  -23.3173 C   0  0  0  0  0  0  0  0  0  0  0  0
  -19.3860   48.8166  -23.6780 C   0  0  0  0  0  0  0  0  0  0  0  0
  -20.2009   50.2025  -24.3491 Cl  0  0  0  0  0  0  0  0  0  0  0  0
  -18.0065   48.8212  -23.5108 C   0  0  0  0  0  0  0  0  0  0  0  0
  -17.3508   47.7090  -22.9722 C   0  0  0  0  0  0  0  0  0  0  0  0
  -18.2734   45.2506  -19.7328 C   0  0  0  0  0  0  0  0  0  0  0  0
  -18.6614   43.7764  -19.7801 C   0  0  0  0  0  0  0  0  0  0  0  0
  -19.6950   43.1814  -20.3361 C   0  0  0  0  0  0  0  0  0  0  0  0
  -19.8358   41.8408  -20.2579 C   0  0  0  0  0  0  0  0  0  0  0  0
  -18.8515   41.1640  -19.5765 C   0  0  0  0  0  0  0  0  0  0  0  0
  -18.7036   39.7557  -19.3153 N   0  0  0  0  0  4  0  0  0  0  0  0
  -18.1122   39.4395  -18.2994 O   0  0  0  0  0  0  0  0  0  0  0  0
  -19.2005   38.8126  -20.1633 O   0  0  0  0  0  1  0  0  0  0  0  0
  -17.7628   42.4652  -19.0728 S   0  0  0  0  0  0  0  0  0  0  0  0
  -15.1247   43.8866  -19.3088 C   0  0  0  0  0  0  0  0  0  0  0  0
  1  2  1  0
  2  3  1  0
  3  4  1  0
  4  5  1  0
  5  6  1  0
  6  7  1  0
  7  8  2  0
  7  9  1  0
  9 10  1  0
 10 11  1  0
 11 12  1  0
 12 13  1  0
 13 14  1  0
 14 15  1  0
 15 16  1  0
 16 17  2  0
 17 18  1  0
 18 19  2  0
 19 20  1  0
 19 21  1  0
 21 22  2  0
 14 23  1  0
 23 24  1  0
 24 25  2  0
 25 26  1  0
 26 27  2  0
 27 28  1  0
 28 29  2  0
 28 30  1  0
 27 31  1  0
 12 32  1  0
 32  9  1  0
 22 16  1  0
 31 24  1  0
M  CHG  2  28   1  30  -1
M  END
$$$$
