
     RDKit          3D

 26 28  0  0  0  0  0  0  0  0999 V2000
  -20.9767   20.4645  -37.5498 C   0  0  0  0  0  0  0  0  0  0  0  0
  -20.4106   19.7762  -38.6473 O   0  0  0  0  0  0  0  0  0  0  0  0
  -19.4389   18.8250  -38.3869 C   0  0  0  0  0  0  0  0  0  0  0  0
  -19.6352   17.8091  -37.4768 C   0  0  0  0  0  0  0  0  0  0  0  0
  -18.6781   16.8565  -37.2081 C   0  0  0  0  0  0  0  0  0  0  0  0
  -17.4631   16.8843  -37.8529 C   0  0  0  0  0  0  0  0  0  0  0  0
  -17.2406   17.8899  -38.7682 C   0  0  0  0  0  0  0  0  0  0  0  0
  -15.9547   17.9029  -39.4364 C   0  0  0  0  0  0  0  0  0  0  0  0
  -15.9039   17.9217  -40.8070 C   0  0  0  0  0  0  0  0  0  0  0  0
  -14.6764   17.9382  -41.4661 C   0  0  0  0  0  0  0  0  0  0  0  0
  -13.5043   17.9357  -40.7493 C   0  0  0  0  0  0  0  0  0  0  0  0
  -12.2750   17.9557  -41.4185 N   0  0  0  0  0  0  0  0  0  0  0  0
  -12.0828   18.8960  -42.5036 C   0  0  0  0  0  0  0  0  0  0  0  0
  -13.0863   19.5032  -42.9307 O   0  0  0  0  0  0  0  0  0  0  0  0
  -10.7682   19.1294  -43.0796 C   0  0  0  0  0  0  0  0  0  0  0  0
  -10.4246   19.7842  -44.1563 C   0  0  0  0  0  0  0  0  0  0  0  0
  -11.2812   20.4750  -45.0958 C   0  0  0  0  0  0  0  0  0  0  0  0
  -10.9331   21.1172  -46.1079 O   0  0  0  0  0  0  0  0  0  0  0  0
  -12.6875   20.4509  -44.8895 O   0  0  0  0  0  0  0  0  0  0  0  0
   -8.9128   19.7371  -44.3232 C   0  0  0  0  0  0  0  0  0  0  0  0
   -8.4927   19.5937  -42.8634 C   0  0  0  0  0  0  0  0  0  0  0  0
   -9.5174   18.5751  -42.4191 C   0  0  0  0  0  0  0  0  0  0  0  0
  -13.5455   17.9168  -39.3833 C   0  0  0  0  0  0  0  0  0  0  0  0
  -12.3978   17.9138  -38.6831 F   0  0  0  0  0  0  0  0  0  0  0  0
  -14.7659   17.9005  -38.7380 C   0  0  0  0  0  0  0  0  0  0  0  0
  -18.2096   18.8333  -39.0234 C   0  0  0  0  0  0  0  0  0  0  0  0
  1  2  1  0
  2  3  1  0
  3  4  2  0
  4  5  1  0
  5  6  2  0
  6  7  1  0
  7  8  1  0
  8  9  2  0
  9 10  1  0
 10 11  2  0
 11 12  1  0
 12 13  1  0
 13 14  2  0
 13 15  1  0
 15 16  2  0
 16 17  1  0
 17 18  2  0
 17 19  1  0
 16 20  1  0
 20 21  1  0
 21 22  1  0
 11 23  1  0
 23 24  1  0
 23 25  2  0
  7 26  2  0
 26  3  1  0
 25  8  1  0
 22 15  1  0
M  END
$$$$
