
     RDKit          3D

 29 31  0  0  0  0  0  0  0  0999 V2000
  -16.2035   40.2820  -18.7760 C   0  0  0  0  0  0  0  0  0  0  0  0
  -15.4915   41.4257  -19.2084 O   0  0  0  0  0  0  0  0  0  0  0  0
  -16.2014   42.4038  -19.9319 C   0  0  0  0  0  0  0  0  0  0  0  0
  -17.4973   42.2242  -20.3144 C   0  0  0  0  0  0  0  0  0  0  0  0
  -18.2519   43.1417  -21.0245 C   0  0  0  0  0  0  0  0  0  0  0  0
  -19.6267   42.8973  -21.4404 C   0  0  0  0  0  0  0  0  0  0  0  0
  -20.3515   41.8943  -21.0331 C   0  0  0  0  0  0  0  0  0  0  0  0
  -19.9081   40.8022  -19.6656 S   0  0  0  0  0  0  0  0  0  0  0  0
  -21.4680   39.9338  -19.6074 C   0  0  0  0  0  0  0  0  0  0  0  0
  -21.7793   39.1207  -18.7110 O   0  0  0  0  0  0  0  0  0  0  0  0
  -22.1873   40.3664  -20.7337 N   0  0  0  0  0  0  0  0  0  0  0  0
  -21.6260   41.3818  -21.4860 C   0  0  0  0  0  0  0  0  0  0  0  0
  -22.1795   41.8700  -22.5381 O   0  0  0  0  0  0  0  0  0  0  0  0
  -17.5912   44.3172  -21.3450 C   0  0  0  0  0  0  0  0  0  0  0  0
  -16.2894   44.5338  -20.9779 C   0  0  0  0  0  0  0  0  0  0  0  0
  -15.5608   43.6062  -20.2736 C   0  0  0  0  0  0  0  0  0  0  0  0
  -14.2734   43.7112  -19.8619 O   0  0  0  0  0  0  0  0  0  0  0  0
  -13.6813   44.3964  -18.8316 C   0  0  0  0  0  0  0  0  0  0  0  0
  -14.5163   45.1638  -17.9941 C   0  0  0  0  0  0  0  0  0  0  0  0
  -13.9942   45.8642  -16.9462 C   0  0  0  0  0  0  0  0  0  0  0  0
  -12.6508   45.8740  -16.6361 C   0  0  0  0  0  0  0  0  0  0  0  0
  -12.0880   46.6076  -15.5352 C   0  0  0  0  0  0  0  0  0  0  0  0
  -11.6464   47.2167  -14.6375 N   0  0  0  0  0  0  0  0  0  0  0  0
  -11.8476   45.1198  -17.4615 C   0  0  0  0  0  0  0  0  0  0  0  0
  -12.3454   44.3902  -18.5414 C   0  0  0  0  0  0  0  0  0  0  0  0
  -11.3783   43.5829  -19.3056 C   0  0  0  0  0  0  0  0  0  0  0  0
  -11.4010   43.9760  -20.6566 F   0  0  0  0  0  0  0  0  0  0  0  0
  -10.1203   43.7921  -18.8165 F   0  0  0  0  0  0  0  0  0  0  0  0
  -11.7302   42.2605  -19.2583 F   0  0  0  0  0  0  0  0  0  0  0  0
  1  2  1  0
  2  3  1  0
  3  4  2  0
  4  5  1  0
  5  6  1  0
  6  7  2  0
  7  8  1  0
  8  9  1  0
  9 10  2  0
  9 11  1  0
 11 12  1  0
 12 13  2  0
  5 14  2  0
 14 15  1  0
 15 16  2  0
 16 17  1  0
 17 18  1  0
 18 19  2  0
 19 20  1  0
 20 21  2  0
 21 22  1  0
 22 23  3  0
 21 24  1  0
 24 25  2  0
 25 26  1  0
 26 27  1  0
 26 28  1  0
 26 29  1  0
 16  3  1  0
 25 18  1  0
 12  7  1  0
M  END
$$$$
