
     RDKit          3D

 26 28  0  0  0  0  0  0  0  0999 V2000
  -21.2461   40.0159  -25.4172 C   0  0  0  0  0  0  0  0  0  0  0  0
  -22.4866   39.7342  -24.6311 C   0  0  0  0  0  0  0  0  0  0  0  0
  -22.6980   38.2561  -24.5001 C   0  0  2  0  0  0  0  0  0  0  0  0
  -24.0373   37.8166  -25.0551 C   0  0  0  0  0  0  0  0  0  0  0  0
  -24.3055   36.5489  -24.5350 O   0  0  0  0  0  0  0  0  0  0  0  0
  -22.5395   37.8772  -23.1179 N   0  0  0  0  0  0  0  0  0  0  0  0
  -21.2237   37.6514  -22.6382 C   0  0  0  0  0  0  0  0  0  0  0  0
  -20.3745   38.6746  -22.4440 N   0  0  0  0  0  0  0  0  0  0  0  0
  -19.1229   38.4963  -21.9935 C   0  0  0  0  0  0  0  0  0  0  0  0
  -18.2623   39.5947  -21.7766 N   0  0  0  0  0  0  0  0  0  0  0  0
  -18.7807   40.9296  -22.0108 C   0  0  0  0  0  0  0  0  0  0  0  0
  -18.5949   41.3387  -23.4083 C   0  0  0  0  0  0  0  0  0  0  0  0
  -17.4231   41.0881  -24.0738 C   0  0  0  0  0  0  0  0  0  0  0  0
  -17.2793   41.4975  -25.4042 C   0  0  0  0  0  0  0  0  0  0  0  0
  -18.3204   42.1504  -26.0358 C   0  0  0  0  0  0  0  0  0  0  0  0
  -19.4951   42.4005  -25.3656 C   0  0  0  0  0  0  0  0  0  0  0  0
  -19.6210   41.9944  -24.0649 C   0  0  0  0  0  0  0  0  0  0  0  0
  -18.7079   37.2162  -21.7261 C   0  0  0  0  0  0  0  0  0  0  0  0
  -17.5660   36.6634  -21.2792 N   0  0  0  0  0  0  0  0  0  0  0  0
  -17.7024   35.3290  -21.1977 C   0  0  0  0  0  0  0  0  0  0  0  0
  -18.9453   35.0154  -21.5954 N   0  0  0  0  0  0  0  0  0  0  0  0
  -19.5363   33.7019  -21.6696 C   0  0  0  0  0  0  0  0  0  0  0  0
  -21.0364   33.7385  -21.4867 C   0  0  0  0  0  0  0  0  0  0  0  0
  -19.3020   33.1798  -23.0892 C   0  0  0  0  0  0  0  0  0  0  0  0
  -19.5755   36.1466  -21.9218 C   0  0  0  0  0  0  0  0  0  0  0  0
  -20.8210   36.4007  -22.3771 N   0  0  0  0  0  0  0  0  0  0  0  0
  1  2  1  0
  3  2  1  1
  3  4  1  0
  4  5  1  0
  3  6  1  0
  6  7  1  0
  7  8  2  0
  8  9  1  0
  9 10  1  0
 10 11  1  0
 11 12  1  0
 12 13  2  0
 13 14  1  0
 14 15  2  0
 15 16  1  0
 16 17  2  0
  9 18  2  0
 18 19  1  0
 19 20  2  0
 20 21  1  0
 21 22  1  0
 22 23  1  0
 22 24  1  0
 21 25  1  0
 25 26  2  0
 26  7  1  0
 17 12  1  0
 25 18  1  0
M  END
$$$$
