
     RDKit          3D

 23 25  0  0  0  0  0  0  0  0999 V2000
  -12.9923   43.2112  -19.8967 O   0  0  0  0  0  0  0  0  0  0  0  0
  -13.6591   43.1915  -18.8418 C   0  0  0  0  0  0  0  0  0  0  0  0
  -15.1113   43.4845  -18.8871 C   0  0  0  0  0  0  0  0  0  0  0  0
  -15.6756   43.3447  -20.0606 C   0  0  0  0  0  0  0  0  0  0  0  0
  -16.8147   42.4836  -20.2302 C   0  0  0  0  0  0  0  0  0  0  0  0
  -17.8464   42.5915  -19.3034 C   0  0  0  0  0  0  0  0  0  0  0  0
  -18.9288   41.7685  -19.4086 C   0  0  0  0  0  0  0  0  0  0  0  0
  -18.9999   40.8417  -20.4206 C   0  0  0  0  0  0  0  0  0  0  0  0
  -20.1024   40.0067  -20.5260 O   0  0  0  0  0  0  0  0  0  0  0  0
  -17.9761   40.7338  -21.3399 C   0  0  0  0  0  0  0  0  0  0  0  0
  -16.8554   41.5650  -21.2540 C   0  0  0  0  0  0  0  0  0  0  0  0
  -15.7820   43.8468  -17.6352 C   0  0  0  0  0  0  0  0  0  0  0  0
  -14.7473   44.3230  -16.6064 C   0  0  0  0  0  0  0  0  0  0  0  0
  -13.8593   43.0926  -16.3043 C   0  0  0  0  0  0  0  0  0  0  0  0
  -13.0615   42.8856  -17.5331 C   0  0  0  0  0  0  0  0  0  0  0  0
  -11.8184   42.4572  -17.4919 C   0  0  0  0  0  0  0  0  0  0  0  0
  -11.1391   42.3017  -16.2186 C   0  0  0  0  0  0  0  0  0  0  0  0
  -11.6850   41.7531  -15.0857 C   0  0  0  0  0  0  0  0  0  0  0  0
  -10.9910   41.6470  -13.8944 C   0  0  0  0  0  0  0  0  0  0  0  0
   -9.6862   42.1018  -13.7997 C   0  0  0  0  0  0  0  0  0  0  0  0
   -8.9676   42.0035  -12.6039 O   0  0  0  0  0  0  0  0  0  0  0  0
   -9.1171   42.6562  -14.9257 C   0  0  0  0  0  0  0  0  0  0  0  0
   -9.8248   42.7568  -16.1146 C   0  0  0  0  0  0  0  0  0  0  0  0
  1  2  2  0
  2  3  1  0
  3  4  2  0
  4  5  1  0
  5  6  2  0
  6  7  1  0
  7  8  2  0
  8  9  1  0
  8 10  1  0
 10 11  2  0
  3 12  1  0
 12 13  1  0
 13 14  1  0
 14 15  1  0
 15 16  2  0
 16 17  1  0
 17 18  2  0
 18 19  1  0
 19 20  2  0
 20 21  1  0
 20 22  1  0
 22 23  2  0
 15  2  1  0
 23 17  1  0
 11  5  1  0
M  END
$$$$
