
     RDKit          3D

 49 53  0  0  0  0  0  0  0  0999 V2000
    1.7766   20.6851  -17.0278 C   0  0  0  0  0  0  0  0  0  0  0  0
    2.0421   21.7214  -18.0995 C   0  0  0  0  0  0  0  0  0  0  0  0
    2.6075   21.1129  -19.3470 C   0  0  0  0  0  0  0  0  0  0  0  0
    2.9735   22.1370  -20.3668 C   0  0  2  0  0  0  0  0  0  0  0  0
    3.5525   21.5077  -21.5234 N   0  0  0  0  0  0  0  0  0  0  0  0
    2.8016   20.7445  -22.4588 C   0  0  0  0  0  0  0  0  0  0  0  0
    1.8169   21.2959  -23.0213 O   0  0  0  0  0  0  0  0  0  0  0  0
    3.0887   19.3424  -22.8295 C   0  0  2  0  0  0  0  0  0  0  0  0
    1.8060   18.6990  -23.2758 C   0  0  1  0  0  0  0  0  0  0  0  0
    1.9635   17.2116  -23.5060 C   0  0  0  0  0  0  0  0  0  0  0  0
    0.6698   16.5880  -23.0205 C   0  0  0  0  0  0  0  0  0  0  0  0
    0.0225   17.6335  -22.1741 C   0  0  0  0  0  0  0  0  0  0  0  0
    1.0001   18.7452  -22.0058 C   0  0  1  0  0  0  0  0  0  0  0  0
    2.0331   18.5122  -20.9232 C   0  0  0  0  0  0  0  0  0  0  0  0
    3.3296   18.5289  -21.6036 N   0  0  0  0  0  0  0  0  0  0  0  0
    4.5435   17.9276  -21.2906 C   0  0  0  0  0  0  0  0  0  0  0  0
    5.5888   18.3474  -21.9337 O   0  0  0  0  0  0  0  0  0  0  0  0
    4.8300   16.8594  -20.3291 C   0  0  1  0  0  0  0  0  0  0  0  0
    4.5574   17.3607  -18.9363 N   0  0  0  0  0  0  0  0  0  0  0  0
    4.7255   18.7286  -18.6332 C   0  0  0  0  0  0  0  0  0  0  0  0
    5.0131   19.5013  -19.6041 O   0  0  0  0  0  0  0  0  0  0  0  0
    4.5970   19.3113  -17.2849 C   0  0  1  0  0  0  0  0  0  0  0  0
    3.7696   18.4029  -16.4942 N   0  0  0  0  0  0  0  0  0  0  0  0
    2.5139   18.0077  -17.0020 C   0  0  0  0  0  0  0  0  0  0  0  0
    2.1500   18.3070  -18.1880 O   0  0  0  0  0  0  0  0  0  0  0  0
    1.6309   17.2394  -16.1324 C   0  0  0  0  0  0  0  0  0  0  0  0
    0.5087   16.6534  -16.7035 C   0  0  0  0  0  0  0  0  0  0  0  0
   -0.3035   15.9362  -15.8875 N   0  0  0  0  0  0  0  0  0  0  0  0
   -0.0426   15.7899  -14.5702 C   0  0  0  0  0  0  0  0  0  0  0  0
    1.0830   16.3829  -14.0205 C   0  0  0  0  0  0  0  0  0  0  0  0
    1.8739   17.0850  -14.8305 N   0  0  0  0  0  0  0  0  0  0  0  0
    5.8629   19.5041  -16.5314 C   0  0  0  0  0  0  0  0  0  0  0  0
    5.7388   19.5280  -15.0432 C   0  0  0  0  0  0  0  0  0  0  0  0
    7.1081   19.7318  -14.4518 C   0  0  0  0  0  0  0  0  0  0  0  0
    8.0989   20.2515  -15.4669 C   0  0  0  0  0  0  0  0  0  0  0  0
    8.2858   19.2709  -16.5969 C   0  0  0  0  0  0  0  0  0  0  0  0
    6.9809   18.5743  -16.9183 C   0  0  0  0  0  0  0  0  0  0  0  0
    4.0281   15.6038  -20.4379 C   0  0  0  0  0  0  0  0  0  0  0  0
    2.5501   16.0552  -20.2196 C   0  0  0  0  0  0  0  0  0  0  0  0
    4.0082   14.9990  -21.8279 C   0  0  0  0  0  0  0  0  0  0  0  0
    4.3714   14.5944  -19.4009 C   0  0  0  0  0  0  0  0  0  0  0  0
    4.0570   22.9887  -19.7082 C   0  0  0  0  0  0  0  0  0  0  0  0
    5.1100   22.4416  -19.3478 O   0  0  0  0  0  0  0  0  0  0  0  0
    3.8580   24.4037  -19.5121 C   0  0  0  0  0  0  0  0  0  0  0  0
    2.7565   24.9807  -19.8105 O   0  0  0  0  0  0  0  0  0  0  0  0
    4.8618   25.2475  -18.9825 N   0  0  0  0  0  0  0  0  0  0  0  0
    4.6284   26.6823  -18.8146 C   0  0  0  0  0  0  0  0  0  0  0  0
    3.7992   27.4221  -19.7919 C   0  0  0  0  0  0  0  0  0  0  0  0
    3.2484   27.0950  -18.3936 C   0  0  0  0  0  0  0  0  0  0  0  0
  1  2  1  0
  2  3  1  0
  4  3  1  1
  4  5  1  0
  5  6  1  0
  6  7  2  0
  8  6  1  1
  8  9  1  0
  9 10  1  1
 10 11  1  0
 11 12  1  0
 13 12  1  6
 13 14  1  0
 14 15  1  0
 15 16  1  0
 16 17  2  0
 16 18  1  0
 18 19  1  1
 19 20  1  0
 20 21  2  0
 20 22  1  0
 22 23  1  1
 23 24  1  0
 24 25  2  0
 24 26  1  0
 26 27  2  0
 27 28  1  0
 28 29  2  0
 29 30  1  0
 30 31  2  0
 22 32  1  0
 32 33  1  0
 33 34  1  0
 34 35  1  0
 35 36  1  0
 36 37  1  0
 18 38  1  0
 38 39  1  0
 38 40  1  0
 38 41  1  0
  4 42  1  0
 42 43  2  0
 42 44  1  0
 44 45  2  0
 44 46  1  0
 46 47  1  0
 47 48  1  0
 48 49  1  0
 15  8  1  0
 31 26  1  0
 37 32  1  0
 49 47  1  0
 13  9  1  0
M  END
$$$$
