
     RDKit          3D

 28 30  0  0  0  0  0  0  0  0999 V2000
  -21.4413   41.2990  -22.7724 C   0  0  0  0  0  0  0  0  0  0  0  0
  -20.3382   41.0422  -21.9718 O   0  0  0  0  0  0  0  0  0  0  0  0
  -19.9191   39.8430  -21.4875 C   0  0  0  0  0  0  0  0  0  0  0  0
  -20.6497   38.6925  -21.8020 C   0  0  0  0  0  0  0  0  0  0  0  0
  -20.2758   37.4478  -21.3415 C   0  0  0  0  0  0  0  0  0  0  0  0
  -21.0335   36.2492  -21.6659 C   0  0  0  0  0  0  0  0  0  0  0  0
  -21.7178   36.0818  -22.8544 C   0  0  0  0  0  0  0  0  0  0  0  0
  -22.3089   34.8546  -22.8197 N   0  0  0  0  0  0  0  0  0  0  0  0
  -22.0318   34.2500  -21.6790 N   0  0  0  0  0  0  0  0  0  0  0  0
  -21.2491   35.0920  -20.9572 C   0  0  0  0  0  0  0  0  0  0  0  0
  -19.1532   37.3297  -20.5504 C   0  0  0  0  0  0  0  0  0  0  0  0
  -18.4253   38.4454  -20.2321 C   0  0  0  0  0  0  0  0  0  0  0  0
  -18.8083   39.7254  -20.7044 C   0  0  0  0  0  0  0  0  0  0  0  0
  -17.9438   40.8091  -20.2843 C   0  0  0  0  0  0  0  0  0  0  0  0
  -16.9427   40.5431  -19.5538 O   0  0  0  0  0  0  0  0  0  0  0  0
  -18.1322   42.1526  -20.6291 N   0  0  0  0  0  0  0  0  0  0  0  0
  -17.3294   43.2543  -20.2534 C   0  0  0  0  0  0  0  0  0  0  0  0
  -17.6910   44.5242  -20.7079 C   0  0  0  0  0  0  0  0  0  0  0  0
  -16.9622   45.6505  -20.3856 C   0  0  0  0  0  0  0  0  0  0  0  0
  -15.8429   45.5319  -19.5927 C   0  0  0  0  0  0  0  0  0  0  0  0
  -15.4768   44.3062  -19.1422 C   0  0  0  0  0  0  0  0  0  0  0  0
  -16.2368   43.1657  -19.4840 C   0  0  0  0  0  0  0  0  0  0  0  0
  -14.3232   43.9509  -18.2874 C   0  0  0  0  0  0  0  0  0  0  0  0
  -14.2420   44.8833  -17.1009 C   0  0  0  0  0  0  0  0  0  0  0  0
  -15.2547   45.9186  -17.1388 N   0  0  0  0  0  0  0  0  0  0  0  0
  -14.7642   47.0383  -17.9433 C   0  0  0  0  0  0  0  0  0  0  0  0
  -15.2248   46.8770  -19.3817 C   0  0  0  0  0  0  0  0  0  0  0  0
  -18.4208   41.0995  -20.4662 Cl  0  0  0  0  0  0  0  0  0  0  0  0
  1  2  1  0
  2  3  1  0
  3  4  2  0
  4  5  1  0
  5  6  1  0
  6  7  1  0
  7  8  2  0
  8  9  1  0
  9 10  1  0
  5 11  2  0
 11 12  1  0
 12 13  2  0
 13 14  1  0
 14 15  2  0
 14 16  1  0
 16 17  1  0
 17 18  2  0
 18 19  1  0
 19 20  2  0
 20 21  1  0
 21 22  2  0
 21 23  1  0
 23 24  1  0
 24 25  1  0
 25 26  1  0
 26 27  1  0
 13  3  1  0
 22 17  1  0
 10  6  2  0
 27 20  1  0
M  END
$$$$
