
     RDKit          3D

 38 44  0  0  0  0  0  0  0  0999 V2000
  -18.1171   37.9349  -19.9661 O   0  0  0  0  0  0  0  0  0  0  0  0
  -18.5822   39.1143  -19.9215 C   0  0  0  0  0  0  0  0  0  0  0  0
  -18.3019   40.0570  -18.9079 N   0  0  0  0  0  0  0  0  0  0  0  0
  -19.0201   41.2328  -19.2412 C   0  0  0  0  0  0  0  0  0  0  0  0
  -19.0520   42.3162  -18.6026 O   0  0  0  0  0  0  0  0  0  0  0  0
  -19.7668   40.9994  -20.5068 C   0  0  0  0  0  0  0  0  0  0  0  0
  -20.6256   42.0261  -21.0950 C   0  0  0  0  0  0  0  0  0  0  0  0
  -21.9123   41.9821  -21.5159 C   0  0  0  0  0  0  0  0  0  0  0  0
  -22.2313   43.1798  -22.0115 N   0  0  0  0  0  0  0  0  0  0  0  0
  -21.1552   43.9780  -21.9056 C   0  0  0  0  0  0  0  0  0  0  0  0
  -20.9133   45.3064  -22.2584 C   0  0  0  0  0  0  0  0  0  0  0  0
  -19.6930   45.9044  -22.0448 C   0  0  0  0  0  0  0  0  0  0  0  0
  -18.6809   45.1723  -21.4668 C   0  0  0  0  0  0  0  0  0  0  0  0
  -18.9490   43.8636  -21.1290 C   0  0  0  0  0  0  0  0  0  0  0  0
  -20.1616   43.2741  -21.3420 N   0  0  0  0  0  0  0  0  0  0  0  0
  -19.5022   39.7642  -20.8898 C   0  0  0  0  0  0  0  0  0  0  0  0
  -19.9978   39.0610  -22.0505 C   0  0  0  0  0  0  0  0  0  0  0  0
  -20.2808   39.5046  -23.3155 C   0  0  0  0  0  0  0  0  0  0  0  0
  -20.6901   38.4786  -24.0709 N   0  0  0  0  0  0  0  0  0  0  0  0
  -20.6806   37.3620  -23.3209 C   0  0  0  0  0  0  0  0  0  0  0  0
  -21.0197   36.0575  -23.6706 C   0  0  0  0  0  0  0  0  0  0  0  0
  -20.9202   35.0889  -22.7137 C   0  0  0  0  0  0  0  0  0  0  0  0
  -20.4925   35.4057  -21.4362 C   0  0  0  0  0  0  0  0  0  0  0  0
  -20.4003   34.4159  -20.4921 F   0  0  0  0  0  0  0  0  0  0  0  0
  -20.1524   36.6930  -21.0755 C   0  0  0  0  0  0  0  0  0  0  0  0
  -20.2505   37.6783  -22.0352 C   0  0  0  0  0  0  0  0  0  0  0  0
  -21.4615   35.6009  -24.9978 C   0  0  0  0  0  0  0  0  0  0  0  0
  -22.5503   36.5056  -25.4427 N   0  0  0  0  0  0  0  0  0  0  0  0
  -23.7144   35.8045  -25.8032 C   0  0  0  0  0  0  0  0  0  0  0  0
  -24.3734   35.2697  -24.7768 O   0  0  0  0  0  0  0  0  0  0  0  0
  -24.3081   35.5635  -27.0358 N   0  0  0  0  0  0  0  0  0  0  0  0
  -23.7610   36.2799  -28.2089 C   0  0  0  0  0  0  0  0  0  0  0  0
  -24.8871   36.8643  -29.0170 C   0  0  0  0  0  0  0  0  0  0  0  0
  -25.8190   35.7680  -29.5027 C   0  0  0  0  0  0  0  0  0  0  0  0
  -25.4379   34.4676  -28.8389 C   0  0  0  0  0  0  0  0  0  0  0  0
  -25.4040   34.7024  -27.2970 C   0  0  0  0  0  0  0  0  0  0  0  0
  -22.5492   37.9195  -25.5399 C   0  0  0  0  0  0  0  0  0  0  0  0
  -21.1129   38.4938  -25.4707 C   0  0  0  0  0  0  0  0  0  0  0  0
  1  2  2  0
  2  3  1  0
  3  4  1  0
  4  5  2  0
  4  6  1  0
  6  7  1  0
  7  8  2  0
  8  9  1  0
  9 10  2  0
 10 11  1  0
 11 12  2  0
 12 13  1  0
 13 14  2  0
 14 15  1  0
  6 16  2  0
 16 17  1  0
 17 18  2  0
 18 19  1  0
 19 20  1  0
 20 21  2  0
 21 22  1  0
 22 23  2  0
 23 24  1  0
 23 25  1  0
 25 26  2  0
 21 27  1  0
 27 28  1  0
 28 29  1  0
 29 30  2  0
 29 31  1  0
 31 32  1  0
 32 33  1  0
 33 34  1  0
 34 35  1  0
 35 36  1  0
 28 37  1  0
 37 38  1  0
 16  2  1  0
 26 17  1  0
 36 31  1  0
 15  7  1  0
 38 19  1  0
 15 10  1  0
 26 20  1  0
M  END
$$$$
