
     RDKit          3D

 31 32  0  0  0  0  0  0  0  0999 V2000
  -17.5587   17.2709  -33.4592 C   0  0  0  0  0  0  0  0  0  0  0  0
  -17.0067   16.9097  -32.1735 N   0  0  0  0  0  0  0  0  0  0  0  0
  -15.5977   17.0255  -31.9188 C   0  0  0  0  0  0  0  0  0  0  0  0
  -17.8707   16.4414  -31.1606 C   0  0  0  0  0  0  0  0  0  0  0  0
  -19.1041   16.4100  -31.3755 O   0  0  0  0  0  0  0  0  0  0  0  0
  -17.3645   15.9941  -29.8673 C   0  0  0  0  0  0  0  0  0  0  0  0
  -17.4853   14.6680  -29.4820 C   0  0  0  0  0  0  0  0  0  0  0  0
  -17.0203   14.2124  -28.2691 C   0  0  0  0  0  0  0  0  0  0  0  0
  -16.4059   15.0715  -27.3725 C   0  0  0  0  0  0  0  0  0  0  0  0
  -15.8194   14.4626  -25.8298 S   0  0  0  0  0  6  0  0  0  0  0  0
  -15.2899   13.0770  -26.0100 O   0  0  0  0  0  0  0  0  0  0  0  0
  -14.7030   15.3064  -25.2989 O   0  0  0  0  0  0  0  0  0  0  0  0
  -17.1417   14.4713  -24.7254 C   0  0  0  0  0  0  0  0  0  0  0  0
  -17.3035   15.4919  -23.8165 C   0  0  0  0  0  0  0  0  0  0  0  0
  -18.3638   15.4770  -22.9387 C   0  0  0  0  0  0  0  0  0  0  0  0
  -19.3159   14.4566  -22.9133 C   0  0  0  0  0  0  0  0  0  0  0  0
  -20.3899   14.4882  -21.9909 N   0  0  0  0  0  0  0  0  0  0  0  0
  -20.4456   15.5097  -21.0290 C   0  0  0  0  0  0  0  0  0  0  0  0
  -19.5213   16.3549  -20.9555 O   0  0  0  0  0  0  0  0  0  0  0  0
  -21.5776   15.6167  -20.0905 C   0  0  1  0  0  0  0  0  0  0  0  0
  -22.4550   16.7945  -20.4311 C   0  0  0  0  0  0  0  0  0  0  0  0
  -22.3916   14.4806  -20.1605 O   0  0  0  0  0  0  0  0  0  0  0  0
  -21.0379   15.6691  -18.6834 C   0  0  0  0  0  0  0  0  0  0  0  0
  -20.1407   14.6315  -18.5174 F   0  0  0  0  0  0  0  0  0  0  0  0
  -21.9944   15.6963  -17.7124 F   0  0  0  0  0  0  0  0  0  0  0  0
  -20.3057   16.8555  -18.5778 F   0  0  0  0  0  0  0  0  0  0  0  0
  -19.1329   13.4446  -23.8340 C   0  0  0  0  0  0  0  0  0  0  0  0
  -20.3015   12.1230  -23.8610 Cl  0  0  0  0  0  0  0  0  0  0  0  0
  -18.0640   13.4543  -24.7236 C   0  0  0  0  0  0  0  0  0  0  0  0
  -16.2806   16.3900  -27.7408 C   0  0  0  0  0  0  0  0  0  0  0  0
  -16.7531   16.8254  -28.9618 C   0  0  0  0  0  0  0  0  0  0  0  0
  1  2  1  0
  2  3  1  0
  2  4  1  0
  4  5  2  0
  4  6  1  0
  6  7  2  0
  7  8  1  0
  8  9  2  0
  9 10  1  0
 10 11  2  0
 10 12  2  0
 10 13  1  0
 13 14  2  0
 14 15  1  0
 15 16  2  0
 16 17  1  0
 17 18  1  0
 18 19  2  0
 18 20  1  0
 20 21  1  6
 20 22  1  0
 20 23  1  0
 23 24  1  0
 23 25  1  0
 23 26  1  0
 16 27  1  0
 27 28  1  0
 27 29  2  0
  9 30  1  0
 30 31  2  0
 31  6  1  0
 29 13  1  0
M  END
$$$$
