
     RDKit          3D

  8  7  0  0  0  0  0  0  0  0999 V2000
  -18.0561   40.8559  -23.0237 N   0  0  0  0  0  0  0  0  0  0  0  0
  -18.8054   39.9123  -22.2763 C   0  0  0  0  0  0  0  0  0  0  0  0
  -18.0427   38.6485  -21.9666 C   0  0  2  0  0  0  0  0  0  0  0  0
  -17.7465   38.0174  -23.1585 O   0  0  0  0  0  0  0  0  0  0  0  0
  -18.9405   37.7687  -21.1462 C   0  0  0  0  0  0  0  0  0  0  0  0
  -18.2905   36.4848  -20.8084 C   0  0  0  0  0  0  0  0  0  0  0  0
  -17.1125   36.2754  -21.2152 O   0  0  0  0  0  0  0  0  0  0  0  0
  -18.9109   35.4942  -20.0555 O   0  0  0  0  0  0  0  0  0  0  0  0
  1  2  1  0
  2  3  1  0
  3  4  1  6
  3  5  1  0
  5  6  1  0
  6  7  2  0
  6  8  1  0
M  END
$$$$
