
     RDKit          3D

 26 28  0  0  0  0  0  0  0  0999 V2000
    2.8771   22.2571  -20.5756 C   0  0  0  0  0  0  0  0  0  0  0  0
    2.4559   20.8600  -20.2544 C   0  0  0  0  0  0  0  0  0  0  0  0
    1.9707   20.0955  -21.2833 C   0  0  0  0  0  0  0  0  0  0  0  0
    1.5881   18.7740  -21.0357 C   0  0  0  0  0  0  0  0  0  0  0  0
    1.7098   18.2896  -19.7827 C   0  0  0  0  0  0  0  0  0  0  0  0
    2.2055   19.0870  -18.7522 C   0  0  0  0  0  0  0  0  0  0  0  0
    2.5903   20.3934  -18.9640 C   0  0  0  0  0  0  0  0  0  0  0  0
    3.0831   21.2225  -17.8644 C   0  0  0  0  0  0  0  0  0  0  0  0
    2.2296   21.7073  -17.0796 O   0  0  0  0  0  0  0  0  0  0  0  0
    4.4787   21.5262  -17.6157 C   0  0  0  0  0  0  0  0  0  0  0  0
    5.4681   21.2904  -18.5654 C   0  0  0  0  0  0  0  0  0  0  0  0
    6.7880   21.5839  -18.3053 C   0  0  0  0  0  0  0  0  0  0  0  0
    7.1974   22.1227  -17.0995 C   0  0  0  0  0  0  0  0  0  0  0  0
    8.6089   22.4178  -16.8583 C   0  0  0  0  0  0  0  0  0  0  0  0
    8.9238   23.0436  -15.8225 O   0  0  0  0  0  0  0  0  0  0  0  0
    9.5997   22.0220  -17.7453 O   0  0  0  0  0  0  0  0  0  0  0  0
    6.2250   22.3595  -16.1535 C   0  0  0  0  0  0  0  0  0  0  0  0
    4.9015   22.0633  -16.4191 C   0  0  0  0  0  0  0  0  0  0  0  0
    1.3351   16.9115  -19.4342 C   0  0  0  0  0  0  0  0  0  0  0  0
    2.5210   16.3666  -18.6170 C   0  0  0  0  0  0  0  0  0  0  0  0
    0.1745   16.9507  -18.4328 C   0  0  0  0  0  0  0  0  0  0  0  0
    1.0724   15.9745  -20.5278 C   0  0  0  0  0  0  0  0  0  0  0  0
    1.2835   16.4721  -21.9167 C   0  0  0  0  0  0  0  0  0  0  0  0
    1.0563   17.9225  -22.1097 C   0  0  0  0  0  0  0  0  0  0  0  0
    1.7042   18.4065  -23.4115 C   0  0  0  0  0  0  0  0  0  0  0  0
   -0.4337   18.2297  -22.2350 C   0  0  0  0  0  0  0  0  0  0  0  0
  1  2  1  0
  2  3  2  0
  3  4  1  0
  4  5  2  0
  5  6  1  0
  6  7  2  0
  7  8  1  0
  8  9  2  0
  8 10  1  0
 10 11  2  0
 11 12  1  0
 12 13  2  0
 13 14  1  0
 14 15  2  0
 14 16  1  0
 13 17  1  0
 17 18  2  0
  5 19  1  0
 19 20  1  0
 19 21  1  0
 19 22  1  0
 22 23  1  0
 23 24  1  0
 24 25  1  0
 24 26  1  0
  7  2  1  0
 18 10  1  0
 24  4  1  0
M  END
$$$$
