
     RDKit          3D

 35 37  0  0  0  0  0  0  0  0999 V2000
  -13.1992    1.5466  -34.2843 C   0  0  0  0  0  0  0  0  0  0  0  0
  -14.0443    0.7425  -33.2856 C   0  0  0  0  0  0  0  0  0  0  0  0
  -14.6770    1.6575  -32.3092 C   0  0  0  0  0  0  0  0  0  0  0  0
  -14.8629   -0.1539  -34.0136 N   0  0  0  0  0  0  0  0  0  0  0  0
  -14.4774   -1.1863  -34.8827 C   0  0  0  0  0  0  0  0  0  0  0  0
  -13.5130   -2.2228  -34.5521 C   0  0  0  0  0  0  0  0  0  0  0  0
  -13.3965   -3.5133  -35.2023 C   0  0  0  0  0  0  0  0  0  0  0  0
  -12.4029   -4.4986  -34.6248 C   0  0  0  0  0  0  0  0  0  0  0  0
  -11.8452   -5.3098  -35.5500 O   0  0  0  0  0  0  0  0  0  0  0  0
  -11.4321   -6.5076  -35.0393 C   0  0  0  0  0  0  0  0  0  0  0  0
  -12.2636   -7.6270  -35.4932 C   0  0  0  0  0  0  0  0  0  0  0  0
  -13.3968   -7.5586  -36.0170 O   0  0  0  0  0  0  0  0  0  0  0  0
  -11.7398   -8.9694  -35.3272 N   0  0  0  0  0  0  0  0  0  0  0  0
  -12.7751  -10.3146  -35.6225 S   0  0  0  0  0  6  0  0  0  0  0  0
  -13.0857  -10.3519  -37.3820 C   0  0  0  0  0  0  0  0  0  0  0  0
  -14.1157  -10.1270  -34.9506 O   0  0  0  0  0  0  0  0  0  0  0  0
  -12.1482  -11.5961  -35.1535 O   0  0  0  0  0  0  0  0  0  0  0  0
  -16.2968    0.0794  -33.8406 C   0  0  0  0  0  0  0  0  0  0  0  0
  -17.1544    0.2505  -34.8892 C   0  0  0  0  0  0  0  0  0  0  0  0
  -18.4619    0.4682  -34.6791 N   0  0  0  0  0  0  0  0  0  0  0  0
  -18.9784    0.5265  -33.4337 C   0  0  0  0  0  0  0  0  0  0  0  0
  -20.3884    0.7626  -33.2180 C   0  0  0  0  0  0  0  0  0  0  0  0
  -21.1127   -0.0744  -32.4144 C   0  0  0  0  0  0  0  0  0  0  0  0
  -22.4796    0.1296  -32.1950 C   0  0  0  0  0  0  0  0  0  0  0  0
  -23.0938    1.1973  -32.8059 C   0  0  0  0  0  0  0  0  0  0  0  0
  -22.3829    2.0605  -33.6250 C   0  0  0  0  0  0  0  0  0  0  0  0
  -21.0159    1.8210  -33.8188 C   0  0  0  0  0  0  0  0  0  0  0  0
  -18.1027    0.3511  -32.3522 C   0  0  0  0  0  0  0  0  0  0  0  0
  -18.6515    0.4162  -31.0064 C   0  0  0  0  0  0  0  0  0  0  0  0
  -19.2994    1.5710  -30.6245 C   0  0  0  0  0  0  0  0  0  0  0  0
  -19.8502    1.7244  -29.3800 C   0  0  0  0  0  0  0  0  0  0  0  0
  -19.7372    0.6705  -28.4985 C   0  0  0  0  0  0  0  0  0  0  0  0
  -19.0955   -0.4997  -28.8466 C   0  0  0  0  0  0  0  0  0  0  0  0
  -18.5454   -0.6357  -30.1096 C   0  0  0  0  0  0  0  0  0  0  0  0
  -16.8011    0.1346  -32.5868 N   0  0  0  0  0  0  0  0  0  0  0  0
  1  2  1  0
  2  3  1  0
  2  4  1  0
  4  5  1  0
  5  6  1  0
  6  7  1  0
  7  8  1  0
  8  9  1  0
  9 10  1  0
 10 11  1  0
 11 12  2  0
 11 13  1  0
 13 14  1  0
 14 15  1  0
 14 16  2  0
 14 17  2  0
  4 18  1  0
 18 19  2  0
 19 20  1  0
 20 21  2  0
 21 22  1  0
 22 23  2  0
 23 24  1  0
 24 25  2  0
 25 26  1  0
 26 27  2  0
 21 28  1  0
 28 29  1  0
 29 30  2  0
 30 31  1  0
 31 32  2  0
 32 33  1  0
 33 34  2  0
 28 35  2  0
 35 18  1  0
 27 22  1  0
 34 29  1  0
M  END
$$$$
