
     RDKit          3D

 27 29  0  0  0  0  0  0  0  0999 V2000
  -24.0618    4.7745  -30.5623 C   0  0  0  0  0  0  0  0  0  0  0  0
  -23.7083    3.6166  -31.2657 O   0  0  0  0  0  0  0  0  0  0  0  0
  -22.4657    3.0187  -31.1936 C   0  0  0  0  0  0  0  0  0  0  0  0
  -22.3129    1.6590  -30.9623 C   0  0  0  0  0  0  0  0  0  0  0  0
  -21.0386    1.0840  -30.8949 C   0  0  0  0  0  0  0  0  0  0  0  0
  -19.9318    1.8715  -31.0588 C   0  0  0  0  0  0  0  0  0  0  0  0
  -18.5933    1.2653  -30.9893 C   0  0  0  0  0  0  0  0  0  0  0  0
  -18.4356    0.4803  -32.1659 O   0  0  0  0  0  0  0  0  0  0  0  0
  -17.2072    0.1145  -32.6774 C   0  0  0  0  0  0  0  0  0  0  0  0
  -16.0516    0.3449  -31.9674 C   0  0  0  0  0  0  0  0  0  0  0  0
  -14.8037   -0.0253  -32.4833 C   0  0  0  0  0  0  0  0  0  0  0  0
  -14.7125   -0.6294  -33.7169 C   0  0  0  0  0  0  0  0  0  0  0  0
  -13.4383   -1.0520  -34.3505 C   0  0  0  0  0  0  0  0  0  0  0  0
  -13.0425   -2.4356  -34.0643 C   0  0  0  0  0  0  0  0  0  0  0  0
  -13.6215   -3.0437  -32.9686 C   0  0  0  0  0  0  0  0  0  0  0  0
  -13.3036   -4.3009  -32.6637 N   0  0  0  0  0  0  0  0  0  0  0  0
  -12.4191   -4.9728  -33.4257 C   0  0  0  0  0  0  0  0  0  0  0  0
  -12.0815   -6.3170  -33.0975 N   0  0  0  0  0  0  0  0  0  0  0  0
  -11.8591   -4.3796  -34.4882 N   0  0  0  0  0  0  0  0  0  0  0  0
  -12.1368   -3.1008  -34.8572 C   0  0  0  0  0  0  0  0  0  0  0  0
  -11.5116   -2.5151  -35.9907 N   0  0  0  0  0  0  0  0  0  0  0  0
  -15.9106   -0.8458  -34.4064 C   0  0  0  0  0  0  0  0  0  0  0  0
  -17.1442   -0.4860  -33.9088 C   0  0  0  0  0  0  0  0  0  0  0  0
  -18.3206   -0.7164  -34.6232 O   0  0  0  0  0  0  0  0  0  0  0  0
  -18.7372    0.1003  -35.6868 C   0  0  0  0  0  0  0  0  0  0  0  0
  -20.0575    3.2160  -31.2879 C   0  0  0  0  0  0  0  0  0  0  0  0
  -21.3352    3.7930  -31.3557 C   0  0  0  0  0  0  0  0  0  0  0  0
  1  2  1  0
  2  3  1  0
  3  4  2  0
  4  5  1  0
  5  6  2  0
  6  7  1  0
  7  8  1  0
  8  9  1  0
  9 10  2  0
 10 11  1  0
 11 12  2  0
 12 13  1  0
 13 14  1  0
 14 15  2  0
 15 16  1  0
 16 17  2  0
 17 18  1  0
 17 19  1  0
 19 20  2  0
 20 21  1  0
 12 22  1  0
 22 23  2  0
 23 24  1  0
 24 25  1  0
  6 26  1  0
 26 27  2  0
 27  3  1  0
 23  9  1  0
 20 14  1  0
M  END
$$$$
