
     RDKit          3D

 23 25  0  0  0  0  0  0  0  0999 V2000
  -17.1354   44.6720  -19.4767 C   0  0  0  0  0  0  0  0  0  0  0  0
  -17.2896   43.1869  -19.6000 C   0  0  0  0  0  0  0  0  0  0  0  0
  -17.9836   42.7717  -20.7372 O   0  0  0  0  0  0  0  0  0  0  0  0
  -18.1518   41.4681  -21.1640 C   0  0  0  0  0  0  0  0  0  0  0  0
  -17.2448   40.8892  -22.0169 C   0  0  0  0  0  0  0  0  0  0  0  0
  -17.4538   39.5846  -22.4170 C   0  0  0  0  0  0  0  0  0  0  0  0
  -18.5247   38.8134  -22.0136 C   0  0  0  0  0  0  0  0  0  0  0  0
  -18.7009   37.2113  -22.6061 S   0  0  0  0  0  6  0  0  0  0  0  0
  -17.3655   36.7396  -23.1693 O   0  0  0  0  0  0  0  0  0  0  0  0
  -18.9101   36.3149  -21.3835 O   0  0  0  0  0  0  0  0  0  0  0  0
  -19.9178   36.9122  -23.6787 N   0  0  0  0  0  0  0  0  0  0  0  0
  -21.0773   36.2319  -23.3227 C   0  0  0  0  0  0  0  0  0  0  0  0
  -21.3372   34.9407  -24.0767 C   0  0  0  0  0  0  0  0  0  0  0  0
  -22.1976   35.2502  -25.2662 C   0  0  0  0  0  0  0  0  0  0  0  0
  -21.5810   36.1638  -26.2584 C   0  0  0  0  0  0  0  0  0  0  0  0
  -20.1045   36.3780  -26.0672 C   0  0  0  0  0  0  0  0  0  0  0  0
  -19.8103   37.4059  -25.0037 C   0  0  0  0  0  0  0  0  0  0  0  0
  -19.4234   39.4068  -21.1590 C   0  0  0  0  0  0  0  0  0  0  0  0
  -20.5316   38.7251  -20.6803 C   0  0  0  0  0  0  0  0  0  0  0  0
  -21.4466   39.2877  -19.8183 C   0  0  0  0  0  0  0  0  0  0  0  0
  -21.2328   40.5937  -19.4228 C   0  0  0  0  0  0  0  0  0  0  0  0
  -20.1440   41.3089  -19.8732 C   0  0  0  0  0  0  0  0  0  0  0  0
  -19.2302   40.7257  -20.7427 C   0  0  0  0  0  0  0  0  0  0  0  0
  1  2  1  0
  2  3  1  0
  3  4  1  0
  4  5  2  0
  5  6  1  0
  6  7  2  0
  7  8  1  0
  8  9  2  0
  8 10  2  0
  8 11  1  0
 11 12  1  0
 12 13  1  0
 13 14  1  0
 14 15  1  0
 15 16  1  0
 16 17  1  0
  7 18  1  0
 18 19  2  0
 19 20  1  0
 20 21  2  0
 21 22  1  0
 22 23  2  0
 23  4  1  0
 17 11  1  0
 23 18  1  0
M  END
$$$$
