
     RDKit          3D

 35 39  0  0  0  0  0  0  0  0999 V2000
  -22.7385   34.7617  -23.2011 C   0  0  0  0  0  0  0  0  0  0  0  0
  -23.0588   36.1524  -22.7708 C   0  0  0  0  0  0  0  0  0  0  0  0
  -22.2639   36.5930  -21.6421 N   0  0  0  0  0  0  0  0  0  0  0  0
  -21.4338   37.7670  -21.7513 C   0  0  0  0  0  0  0  0  0  0  0  0
  -21.5287   38.3832  -22.8147 O   0  0  0  0  0  0  0  0  0  0  0  0
  -20.5805   38.1791  -20.7238 N   0  0  0  0  0  0  0  0  0  0  0  0
  -19.8450   39.3821  -20.7135 C   0  0  0  0  0  0  0  0  0  0  0  0
  -18.7619   39.5023  -19.8294 C   0  0  0  0  0  0  0  0  0  0  0  0
  -17.9887   40.6454  -19.7548 C   0  0  0  0  0  0  0  0  0  0  0  0
  -18.2575   41.7103  -20.5505 C   0  0  0  0  0  0  0  0  0  0  0  0
  -17.4435   42.9338  -20.4826 C   0  0  0  0  0  0  0  0  0  0  0  0
  -16.2700   42.9208  -19.8202 N   0  0  0  0  0  0  0  0  0  0  0  0
  -15.4711   44.0074  -19.7178 C   0  0  0  0  0  0  0  0  0  0  0  0
  -15.8603   45.1740  -20.3073 C   0  0  0  0  0  0  0  0  0  0  0  0
  -17.0535   45.2077  -20.9874 C   0  0  0  0  0  0  0  0  0  0  0  0
  -17.5335   46.3778  -21.6300 N   0  0  0  0  0  0  0  0  0  0  0  0
  -17.2143   46.7497  -22.9921 C   0  0  0  0  0  0  0  0  0  0  0  0
  -18.5403   47.1799  -23.6263 C   0  0  0  0  0  0  0  0  0  0  0  0
  -19.1497   48.2068  -22.9542 O   0  0  0  0  0  0  0  0  0  0  0  0
  -18.6478   48.4991  -21.7115 C   0  0  0  0  0  0  0  0  0  0  0  0
  -18.4006   47.2614  -20.8785 C   0  0  2  0  0  0  0  0  0  0  0  0
  -17.8103   47.6315  -19.5527 C   0  0  0  0  0  0  0  0  0  0  0  0
  -17.8193   44.0762  -21.0569 N   0  0  0  0  0  0  0  0  0  0  0  0
  -15.0117   46.3660  -20.2102 C   0  0  0  0  0  0  0  0  0  0  0  0
  -14.2068   46.4403  -18.9374 C   0  0  0  0  0  0  0  0  0  0  0  0
  -13.6792   45.1564  -18.5401 N   0  0  0  0  0  0  0  0  0  0  0  0
  -12.5645   45.1509  -17.6642 C   0  0  0  0  0  0  0  0  0  0  0  0
  -12.0199   44.0040  -17.2019 N   0  0  0  0  0  0  0  0  0  0  0  0
  -10.9661   44.1109  -16.3774 C   0  0  0  0  0  0  0  0  0  0  0  0
  -10.4202   45.3170  -15.9852 C   0  0  0  0  0  0  0  0  0  0  0  0
  -10.9984   46.4813  -16.4745 C   0  0  0  0  0  0  0  0  0  0  0  0
  -12.0408   46.3303  -17.2886 N   0  0  0  0  0  0  0  0  0  0  0  0
  -14.2169   43.8991  -18.9799 C   0  0  0  0  0  0  0  0  0  0  0  0
  -19.2976   41.6352  -21.4209 C   0  0  0  0  0  0  0  0  0  0  0  0
  -20.0725   40.4810  -21.4910 C   0  0  0  0  0  0  0  0  0  0  0  0
  1  2  1  0
  2  3  1  0
  3  4  1  0
  4  5  2  0
  4  6  1  0
  6  7  1  0
  7  8  2  0
  8  9  1  0
  9 10  2  0
 10 11  1  0
 11 12  2  0
 12 13  1  0
 13 14  2  0
 14 15  1  0
 15 16  1  0
 16 17  1  0
 17 18  1  0
 18 19  1  0
 19 20  1  0
 20 21  1  0
 21 22  1  1
 15 23  2  0
 14 24  1  0
 24 25  1  0
 25 26  1  0
 26 27  1  0
 27 28  2  0
 28 29  1  0
 29 30  2  0
 30 31  1  0
 31 32  2  0
 26 33  1  0
 10 34  1  0
 34 35  2  0
 35  7  1  0
 23 11  1  0
 32 27  1  0
 33 13  1  0
 21 16  1  0
M  END
$$$$
