
     RDKit          3D

 25 27  0  0  0  0  0  0  0  0999 V2000
  -20.3051   21.3545  -42.0535 O   0  0  0  0  0  0  0  0  0  0  0  0
  -19.9809   20.2028  -41.3362 C   0  0  0  0  0  0  0  0  0  0  0  0
  -18.5403   20.3085  -40.8429 C   0  0  0  0  0  0  0  0  0  0  0  0
  -18.1383   19.1075  -40.0569 C   0  0  0  0  0  0  0  0  0  0  0  0
  -16.8049   19.2376  -39.5343 N   0  0  0  0  0  0  0  0  0  0  0  0
  -16.4506   18.8090  -38.2300 C   0  0  0  0  0  0  0  0  0  0  0  0
  -17.3309   18.0378  -37.4614 C   0  0  0  0  0  0  0  0  0  0  0  0
  -17.0393   17.6037  -36.2091 C   0  0  0  0  0  0  0  0  0  0  0  0
  -17.9368   16.8073  -35.3881 C   0  0  0  0  0  0  0  0  0  0  0  0
  -19.0811   16.2260  -35.8815 C   0  0  0  0  0  0  0  0  0  0  0  0
  -19.9197   15.4791  -35.0824 C   0  0  0  0  0  0  0  0  0  0  0  0
  -19.5881   15.3309  -33.7937 N   0  0  0  0  0  0  0  0  0  0  0  0
  -18.4759   15.8829  -33.2675 C   0  0  0  0  0  0  0  0  0  0  0  0
  -18.2196   15.6700  -31.8914 N   0  0  0  0  0  0  0  0  0  0  0  0
  -17.1847   16.3705  -31.2141 C   0  0  0  0  0  0  0  0  0  0  0  0
  -16.4806   15.7823  -30.1629 C   0  0  0  0  0  0  0  0  0  0  0  0
  -15.4726   16.4588  -29.5107 C   0  0  0  0  0  0  0  0  0  0  0  0
  -15.1341   17.7357  -29.8806 C   0  0  0  0  0  0  0  0  0  0  0  0
  -15.8093   18.3366  -30.9093 C   0  0  0  0  0  0  0  0  0  0  0  0
  -15.4101   19.9630  -31.4141 Cl  0  0  0  0  0  0  0  0  0  0  0  0
  -16.8178   17.6537  -31.5586 C   0  0  0  0  0  0  0  0  0  0  0  0
  -17.6773   16.6041  -34.0648 N   0  0  0  0  0  0  0  0  0  0  0  0
  -15.8008   17.9532  -35.6840 C   0  0  0  0  0  0  0  0  0  0  0  0
  -14.9178   18.7179  -36.4350 C   0  0  0  0  0  0  0  0  0  0  0  0
  -15.2752   19.1081  -37.6594 N   0  0  0  0  0  0  0  0  0  0  0  0
  1  2  1  0
  2  3  1  0
  3  4  1  0
  4  5  1  0
  5  6  1  0
  6  7  2  0
  7  8  1  0
  8  9  1  0
  9 10  2  0
 10 11  1  0
 11 12  2  0
 12 13  1  0
 13 14  1  0
 14 15  1  0
 15 16  2  0
 16 17  1  0
 17 18  2  0
 18 19  1  0
 19 20  1  0
 19 21  2  0
 13 22  2  0
  8 23  2  0
 23 24  1  0
 24 25  2  0
 25  6  1  0
 22  9  1  0
 21 15  1  0
M  END
$$$$
