
     RDKit          3D

 28 30  0  0  0  0  0  0  0  0999 V2000
  -19.6414   35.8284  -22.2625 C   0  0  0  0  0  0  0  0  0  0  0  0
  -19.5643   37.2835  -22.6556 C   0  0  0  0  0  0  0  0  0  0  0  0
  -20.4145   38.1757  -21.7803 C   0  0  0  0  0  0  0  0  0  0  0  0
  -18.1552   37.7482  -22.6113 C   0  0  0  0  0  0  0  0  0  0  0  0
  -18.0282   38.8365  -21.6235 C   0  0  0  0  0  0  0  0  0  0  0  0
  -17.5139   40.0713  -21.7718 N   0  0  0  0  0  0  0  0  0  0  0  0
  -17.5931   40.7519  -20.6107 C   0  0  0  0  0  0  0  0  0  0  0  0
  -17.1608   42.1036  -20.3250 C   0  0  0  0  0  0  0  0  0  0  0  0
  -16.8519   42.9812  -21.3418 C   0  0  0  0  0  0  0  0  0  0  0  0
  -16.4418   44.2651  -21.0476 C   0  0  0  0  0  0  0  0  0  0  0  0
  -16.3363   44.6840  -19.7423 C   0  0  0  0  0  0  0  0  0  0  0  0
  -15.9207   45.9817  -19.4939 O   0  0  0  0  0  0  0  0  0  0  0  0
  -16.6526   43.7822  -18.7437 C   0  0  0  0  0  0  0  0  0  0  0  0
  -17.0486   42.5402  -19.0610 N   0  0  0  0  0  0  0  0  0  0  0  0
  -18.1742   39.8874  -19.7492 N   0  0  0  0  0  0  0  0  0  0  0  0
  -18.4157   38.7752  -20.3760 O   0  0  0  0  0  0  0  0  0  0  0  0
  -20.1241   37.3730  -24.0668 C   0  0  0  0  0  0  0  0  0  0  0  0
  -19.3944   37.4307  -25.0175 O   0  0  0  0  0  0  0  0  0  0  0  0
  -21.5168   37.3835  -24.1810 N   0  0  0  0  0  0  0  0  0  0  0  0
  -22.5028   37.1963  -25.0790 C   0  0  0  0  0  0  0  0  0  0  0  0
  -23.7758   37.3745  -25.0766 C   0  0  0  0  0  0  0  0  0  0  0  0
  -24.6439   37.8622  -24.0617 C   0  0  0  0  0  0  0  0  0  0  0  0
  -24.0535   38.1956  -22.9392 O   0  0  0  0  0  0  0  0  0  0  0  0
  -25.9572   38.0559  -24.0091 O   0  0  0  0  0  0  0  0  0  0  0  0
  -24.4583   36.9906  -26.3990 C   0  0  0  0  0  0  0  0  0  0  0  0
  -23.8299   37.6684  -27.5668 C   0  0  0  0  0  0  0  0  0  0  0  0
  -22.3104   37.6648  -27.4464 C   0  0  0  0  0  0  0  0  0  0  0  0
  -21.9765   36.6248  -26.4392 C   0  0  0  0  0  0  0  0  0  0  0  0
  1  2  1  0
  2  3  1  0
  2  4  1  0
  4  5  1  0
  5  6  2  0
  6  7  1  0
  7  8  1  0
  8  9  2  0
  9 10  1  0
 10 11  2  0
 11 12  1  0
 11 13  1  0
 13 14  2  0
  7 15  2  0
 15 16  1  0
  2 17  1  0
 17 18  2  0
 17 19  1  0
 19 20  1  0
 20 21  2  0
 21 22  1  0
 22 23  2  0
 22 24  1  0
 21 25  1  0
 25 26  1  0
 26 27  1  0
 27 28  1  0
 16  5  1  0
 28 20  1  0
 14  8  1  0
M  END
$$$$
