
     RDKit          3D

 17 17  0  0  0  0  0  0  0  0999 V2000
  -22.9505   36.0251  -22.5350 O   0  0  0  0  0  0  0  0  0  0  0  0
  -22.7859   37.1337  -23.0514 C   0  0  0  0  0  0  0  0  0  0  0  0
  -23.6868   37.3699  -24.1331 O   0  0  0  0  0  1  0  0  0  0  0  0
  -21.8851   38.2000  -22.7768 C   0  0  0  0  0  0  0  0  0  0  0  0
  -20.9936   38.2050  -21.8290 C   0  0  0  0  0  0  0  0  0  0  0  0
  -20.1386   39.4696  -21.7414 C   0  0  0  0  0  0  0  0  0  0  0  0
  -18.7888   39.1728  -22.3692 C   0  0  0  0  0  0  0  0  0  0  0  0
  -17.9861   38.1460  -21.6551 C   0  0  0  0  0  0  0  0  0  0  0  0
  -18.4850   36.7584  -21.7825 C   0  0  0  0  0  0  0  0  0  0  0  0
  -17.5280   35.8776  -22.2782 C   0  0  0  0  0  0  0  0  0  0  0  0
  -17.8057   34.5434  -22.4507 C   0  0  0  0  0  0  0  0  0  0  0  0
  -19.0483   34.0592  -22.1311 C   0  0  0  0  0  0  0  0  0  0  0  0
  -20.0177   34.9028  -21.6390 C   0  0  0  0  0  0  0  0  0  0  0  0
  -19.7225   36.2246  -21.4752 C   0  0  0  0  0  0  0  0  0  0  0  0
  -20.8443   37.0706  -20.9455 C   0  0  2  0  0  0  0  0  0  0  0  0
  -21.9180   36.4021  -20.4797 O   0  0  0  0  0  0  0  0  0  0  0  0
  -19.8284   37.0832  -21.9615 Na  0  0  0  0  0 15  0  0  0  0  0  0
  1  2  2  0
  2  3  1  0
  2  4  1  0
  4  5  2  0
  5  6  1  0
  6  7  1  0
  7  8  1  0
  8  9  1  0
  9 10  2  0
 10 11  1  0
 11 12  2  0
 12 13  1  0
 13 14  2  0
 14 15  1  0
 15 16  1  6
 15  5  1  0
 14  9  1  0
M  CHG  2   3  -1  17   1
M  END
$$$$
