
     RDKit          3D

 43 47  0  0  0  0  0  0  0  0999 V2000
  -20.7486   16.5174  -21.0929 C   0  0  0  0  0  0  0  0  0  0  0  0
  -20.0934   15.3136  -21.3537 O   0  0  0  0  0  0  0  0  0  0  0  0
  -20.7233   14.1520  -21.7513 C   0  0  0  0  0  0  0  0  0  0  0  0
  -22.0469   14.2107  -22.1888 C   0  0  0  0  0  0  0  0  0  0  0  0
  -22.7720   13.1278  -22.6047 C   0  0  0  0  0  0  0  0  0  0  0  0
  -24.1119   13.1328  -23.0435 N   0  0  0  0  0  0  0  0  0  0  0  0
  -24.5438   13.5063  -24.3341 C   0  0  0  0  0  0  0  0  0  0  0  0
  -23.9828   12.9996  -25.4595 N   0  0  0  0  0  0  0  0  0  0  0  0
  -24.3618   13.3231  -26.7009 C   0  0  0  0  0  0  0  0  0  0  0  0
  -23.7585   12.7743  -27.8274 C   0  0  0  0  0  0  0  0  0  0  0  0
  -24.1477   13.1022  -29.1150 C   0  0  0  0  0  0  0  0  0  0  0  0
  -25.1734   14.0080  -29.2926 C   0  0  0  0  0  0  0  0  0  0  0  0
  -25.7716   14.5522  -28.1790 C   0  0  0  0  0  0  0  0  0  0  0  0
  -25.3873   14.2284  -26.8952 C   0  0  0  0  0  0  0  0  0  0  0  0
  -25.9538   14.7398  -25.7990 N   0  0  0  0  0  0  0  0  0  0  0  0
  -25.5646   14.4077  -24.5235 C   0  0  0  0  0  0  0  0  0  0  0  0
  -26.2318   15.0052  -23.4256 N   0  0  0  0  0  0  0  0  0  0  0  0
  -27.8231   14.5231  -22.9432 S   0  0  0  0  0  6  0  0  0  0  0  0
  -28.8196   15.4645  -23.5270 O   0  0  0  0  0  0  0  0  0  0  0  0
  -27.8774   14.5540  -21.4380 O   0  0  0  0  0  0  0  0  0  0  0  0
  -28.1410   12.9271  -23.5559 C   0  0  0  0  0  0  0  0  0  0  0  0
  -28.0074   11.8194  -22.7711 C   0  0  0  0  0  0  0  0  0  0  0  0
  -28.2473   10.5320  -23.2233 C   0  0  0  0  0  0  0  0  0  0  0  0
  -28.6384   10.3214  -24.5108 C   0  0  0  0  0  0  0  0  0  0  0  0
  -28.9139    9.0616  -25.0537 N   0  0  0  0  0  0  0  0  0  0  0  0
  -28.8722    8.6886  -26.4065 C   0  0  0  0  0  0  0  0  0  0  0  0
  -28.7165    9.5748  -27.2846 O   0  0  0  0  0  0  0  0  0  0  0  0
  -29.0008    7.3015  -26.8609 C   0  0  0  0  0  0  0  0  0  0  0  0
  -29.0955    6.2671  -25.9391 C   0  0  0  0  0  0  0  0  0  0  0  0
  -29.2181    4.9517  -26.3306 C   0  0  0  0  0  0  0  0  0  0  0  0
  -29.2508    4.6157  -27.6741 C   0  0  0  0  0  0  0  0  0  0  0  0
  -29.3840    3.1887  -28.0884 C   0  0  0  0  0  0  0  0  0  0  0  0
  -29.1581    5.6255  -28.6008 C   0  0  0  0  0  0  0  0  0  0  0  0
  -29.1864    5.3379  -29.9445 O   0  0  0  0  0  0  0  0  0  0  0  0
  -29.3420    6.3095  -30.9566 C   0  0  0  0  0  0  0  0  0  0  0  0
  -29.0341    6.9579  -28.1765 C   0  0  0  0  0  0  0  0  0  0  0  0
  -28.7772   11.4649  -25.3252 C   0  0  0  0  0  0  0  0  0  0  0  0
  -28.5363   12.7304  -24.8630 C   0  0  0  0  0  0  0  0  0  0  0  0
  -22.1027   11.9106  -22.5721 C   0  0  0  0  0  0  0  0  0  0  0  0
  -20.8004   11.7880  -22.1526 C   0  0  0  0  0  0  0  0  0  0  0  0
  -20.2452   10.5146  -22.1685 O   0  0  0  0  0  0  0  0  0  0  0  0
  -20.6970    9.4578  -22.9608 C   0  0  0  0  0  0  0  0  0  0  0  0
  -20.1286   12.9086  -21.7480 C   0  0  0  0  0  0  0  0  0  0  0  0
  1  2  1  0
  2  3  1  0
  3  4  2  0
  4  5  1  0
  5  6  1  0
  6  7  1  0
  7  8  2  0
  8  9  1  0
  9 10  2  0
 10 11  1  0
 11 12  2  0
 12 13  1  0
 13 14  2  0
 14 15  1  0
 15 16  2  0
 16 17  1  0
 17 18  1  0
 18 19  2  0
 18 20  2  0
 18 21  1  0
 21 22  2  0
 22 23  1  0
 23 24  2  0
 24 25  1  0
 25 26  1  0
 26 27  2  0
 26 28  1  0
 28 29  2  0
 29 30  1  0
 30 31  2  0
 31 32  1  0
 31 33  1  0
 33 34  1  0
 34 35  1  0
 33 36  2  0
 24 37  1  0
 37 38  2  0
  5 39  2  0
 39 40  1  0
 40 41  1  0
 41 42  1  0
 40 43  2  0
 43  3  1  0
 16  7  1  0
 38 21  1  0
 14  9  1  0
 36 28  1  0
M  END
$$$$
