
     RDKit          3D

 22 24  0  0  0  0  0  0  0  0999 V2000
  -27.1785   23.2935  -33.2583 O   0  0  0  0  0  0  0  0  0  0  0  0
  -26.0557   23.5245  -33.8274 C   0  0  0  0  0  0  0  0  0  0  0  0
  -25.0695   22.4196  -33.8997 C   0  0  0  0  0  0  0  0  0  0  0  0
  -23.4619   23.0762  -33.3140 S   0  0  0  0  0  0  0  0  0  0  0  0
  -23.3795   24.7393  -33.9686 C   0  0  0  0  0  0  0  0  0  0  0  0
  -22.1259   25.2971  -34.0026 C   0  0  0  0  0  0  0  0  0  0  0  0
  -21.9780   26.5780  -34.5066 C   0  0  0  0  0  0  0  0  0  0  0  0
  -23.1065   27.2497  -34.9588 C   0  0  0  0  0  0  0  0  0  0  0  0
  -24.3563   26.7015  -34.9277 C   0  0  0  0  0  0  0  0  0  0  0  0
  -24.5183   25.4261  -34.4283 C   0  0  0  0  0  0  0  0  0  0  0  0
  -25.8142   24.8456  -34.3653 N   0  0  0  0  0  0  0  0  0  0  0  0
  -27.0085   25.5184  -34.8305 C   0  0  0  0  0  0  0  0  0  0  0  0
  -27.4672   25.0142  -36.1614 C   0  0  0  0  0  0  0  0  0  0  0  0
  -26.5581   24.8821  -37.2127 C   0  0  0  0  0  0  0  0  0  0  0  0
  -26.9260   24.4198  -38.4543 C   0  0  0  0  0  0  0  0  0  0  0  0
  -28.2259   24.0615  -38.7196 C   0  0  0  0  0  0  0  0  0  0  0  0
  -29.1389   24.1836  -37.6976 C   0  0  0  0  0  0  0  0  0  0  0  0
  -30.5431   23.8026  -37.9645 C   0  0  0  0  0  0  0  0  0  0  0  0
  -31.4279   24.6308  -37.2818 F   0  0  0  0  0  0  0  0  0  0  0  0
  -30.8224   22.5024  -37.5730 F   0  0  0  0  0  0  0  0  0  0  0  0
  -30.7543   23.8710  -39.3260 F   0  0  0  0  0  0  0  0  0  0  0  0
  -28.7592   24.6499  -36.4509 C   0  0  0  0  0  0  0  0  0  0  0  0
  1  2  2  0
  2  3  1  0
  3  4  1  0
  4  5  1  0
  5  6  2  0
  6  7  1  0
  7  8  2  0
  8  9  1  0
  9 10  2  0
 10 11  1  0
 11 12  1  0
 12 13  1  0
 13 14  2  0
 14 15  1  0
 15 16  2  0
 16 17  1  0
 17 18  1  0
 18 19  1  0
 18 20  1  0
 18 21  1  0
 17 22  2  0
 11  2  1  0
 22 13  1  0
 10  5  1  0
M  END
$$$$
