
     RDKit          3D

 40 45  0  0  0  0  0  0  0  0999 V2000
  -22.2174   19.8461  -31.5942 C   0  0  0  0  0  0  0  0  0  0  0  0
  -20.7525   19.5786  -32.2008 C   0  0  2  0  0  0  0  0  0  0  0  0
  -20.9858   19.8629  -33.5761 N   0  0  0  0  0  0  0  0  0  0  0  0
  -20.7442   18.9600  -34.6165 C   0  0  0  0  0  0  0  0  0  0  0  0
  -19.5942   18.6438  -34.9554 O   0  0  0  0  0  0  0  0  0  0  0  0
  -21.8391   18.2902  -35.4024 C   0  0  0  0  0  0  0  0  0  0  0  0
  -21.7226   18.0748  -36.7758 C   0  0  0  0  0  0  0  0  0  0  0  0
  -20.6393   18.3858  -37.6349 N   0  0  0  0  0  0  0  0  0  0  0  0
  -22.8897   17.5359  -37.1547 N   0  0  0  0  0  0  0  0  0  0  0  0
  -23.6904   17.4203  -36.1249 N   0  0  0  0  0  0  0  0  0  0  0  0
  -24.9783   16.9663  -36.1402 C   0  0  0  0  0  0  0  0  0  0  0  0
  -25.6995   16.9767  -34.9558 C   0  0  0  0  0  0  0  0  0  0  0  0
  -25.0758   17.4371  -33.8046 C   0  0  0  0  0  0  0  0  0  0  0  0
  -23.7939   17.8765  -33.8582 N   0  0  0  0  0  0  0  0  0  0  0  0
  -23.0724   17.8780  -35.0057 C   0  0  0  0  0  0  0  0  0  0  0  0
  -20.3247   18.2867  -31.7129 C   0  0  0  0  0  0  0  0  0  0  0  0
  -21.1600   17.1951  -31.6354 C   0  0  0  0  0  0  0  0  0  0  0  0
  -20.7131   15.8940  -31.3196 C   0  0  0  0  0  0  0  0  0  0  0  0
  -21.6341   14.8635  -31.2788 C   0  0  0  0  0  0  0  0  0  0  0  0
  -21.0646   13.5883  -30.9759 C   0  0  0  0  0  0  0  0  0  0  0  0
  -19.7451   13.4304  -30.7576 C   0  0  0  0  0  0  0  0  0  0  0  0
  -18.8039   14.4652  -30.8033 C   0  0  0  0  0  0  0  0  0  0  0  0
  -17.4443   14.2680  -30.9209 C   0  0  0  0  0  0  0  0  0  0  0  0
  -16.1748   14.0888  -31.0529 C   0  0  0  0  0  0  0  0  0  0  0  0
  -14.7209   13.9043  -31.2002 C   0  0  0  0  0  0  0  0  0  0  0  0
  -13.8173   14.8954  -31.5414 C   0  0  0  0  0  0  0  0  0  0  0  0
  -12.6366   14.2558  -31.6849 N   0  0  0  0  0  0  0  0  0  0  0  0
  -12.7450   12.9547  -31.4550 N   0  0  0  0  0  0  0  0  0  0  0  0
  -11.8422   11.8347  -31.4465 C   0  0  0  0  0  0  0  0  0  0  0  0
  -14.0696   12.7477  -31.1495 C   0  0  0  0  0  0  0  0  0  0  0  0
  -19.3847   15.7131  -31.0863 C   0  0  0  0  0  0  0  0  0  0  0  0
  -18.5836   16.7921  -31.1532 C   0  0  0  0  0  0  0  0  0  0  0  0
  -17.3122   16.5986  -30.9211 O   0  0  0  0  0  0  0  0  0  0  0  0
  -18.9769   18.0350  -31.4386 N   0  0  0  0  0  0  0  0  0  0  0  0
  -18.0887   19.0628  -31.1103 C   0  0  0  0  0  0  0  0  0  0  0  0
  -17.1239   19.6532  -31.9243 C   0  0  0  0  0  0  0  0  0  0  0  0
  -16.1872   20.5142  -31.4466 C   0  0  0  0  0  0  0  0  0  0  0  0
  -16.0918   20.8997  -30.1046 C   0  0  0  0  0  0  0  0  0  0  0  0
  -17.0684   20.3142  -29.2610 C   0  0  0  0  0  0  0  0  0  0  0  0
  -17.9416   19.4939  -29.7767 C   0  0  0  0  0  0  0  0  0  0  0  0
  2  1  1  1
  2  3  1  0
  3  4  1  0
  4  5  2  0
  4  6  1  0
  6  7  1  0
  7  8  1  0
  7  9  2  0
  9 10  1  0
 10 11  1  0
 11 12  2  0
 12 13  1  0
 13 14  2  0
 14 15  1  0
  2 16  1  0
 16 17  2  0
 17 18  1  0
 18 19  2  0
 19 20  1  0
 20 21  2  0
 21 22  1  0
 22 23  1  0
 23 24  3  0
 24 25  1  0
 25 26  1  0
 26 27  2  0
 27 28  1  0
 28 29  1  0
 28 30  1  0
 22 31  2  0
 31 32  1  0
 32 33  2  0
 32 34  1  0
 34 35  1  0
 35 36  2  0
 36 37  1  0
 37 38  2  0
 38 39  1  0
 39 40  2  0
 15  6  2  0
 34 16  1  0
 40 35  1  0
 15 10  1  0
 31 18  1  0
 30 25  2  0
M  END
$$$$
