
     RDKit          3D

 26 29  0  0  0  0  0  0  0  0999 V2000
  -21.7076   37.6327  -21.3088 C   0  0  0  0  0  0  0  0  0  0  0  0
  -20.3927   37.9139  -21.9340 C   0  0  2  0  0  0  0  0  0  0  0  0
  -19.3270   38.3112  -20.9830 C   0  0  0  0  0  0  0  0  0  0  0  0
  -19.6463   39.6877  -20.4303 C   0  0  2  0  0  0  0  0  0  0  0  0
  -20.8098   39.5867  -19.6933 O   0  0  0  0  0  0  0  0  0  0  0  0
  -19.6876   40.6370  -21.5577 C   0  0  1  0  0  0  0  0  0  0  0  0
  -20.8011   40.2955  -22.5319 C   0  0  1  0  0  0  0  0  0  0  0  0
  -20.9327   41.2971  -23.6126 C   0  0  0  0  0  0  0  0  0  0  0  0
  -19.8649   42.3245  -23.7253 C   0  0  0  0  0  0  0  0  0  0  0  0
  -19.3220   42.8023  -22.4500 C   0  0  0  0  0  0  0  0  0  0  0  0
  -18.4995   43.8323  -22.4573 C   0  0  0  0  0  0  0  0  0  0  0  0
  -17.9388   44.3366  -21.2109 C   0  0  0  0  0  0  0  0  0  0  0  0
  -16.9235   45.0719  -21.2023 O   0  0  0  0  0  0  0  0  0  0  0  0
  -18.6228   43.9411  -19.9560 C   0  0  0  0  0  0  0  0  0  0  0  0
  -18.8423   42.4384  -20.0462 C   0  0  0  0  0  0  0  0  0  0  0  0
  -19.7355   42.0888  -21.2122 C   0  0  2  0  0  0  0  0  0  0  0  0
  -21.1214   42.5870  -20.8754 C   0  0  0  0  0  0  0  0  0  0  0  0
  -20.4717   38.9418  -23.0640 C   0  0  2  0  0  0  0  0  0  0  0  0
  -21.4621   38.3089  -23.9609 C   0  0  0  0  0  0  0  0  0  0  0  0
  -21.0663   36.8263  -23.8959 C   0  0  0  0  0  0  0  0  0  0  0  0
  -20.0221   36.7145  -22.7988 C   0  0  1  0  0  0  0  0  0  0  0  0
  -18.7793   36.9256  -23.4133 O   0  0  0  0  0  0  0  0  0  0  0  0
  -20.0441   35.4478  -22.0824 C   0  0  0  0  0  0  0  0  0  0  0  0
  -21.0611   34.9988  -21.5928 O   0  0  0  0  0  0  0  0  0  0  0  0
  -18.7999   34.6565  -21.9288 C   0  0  0  0  0  0  0  0  0  0  0  0
  -19.0304   33.3603  -21.4856 O   0  0  0  0  0  0  0  0  0  0  0  0
  2  1  1  1
  2  3  1  0
  3  4  1  0
  4  5  1  6
  6  4  1  1
  6  7  1  0
  7  8  1  6
  8  9  1  0
  9 10  1  0
 10 11  2  0
 11 12  1  0
 12 13  2  0
 12 14  1  0
 14 15  1  0
 15 16  1  0
 16 17  1  1
  7 18  1  0
 18 19  1  6
 19 20  1  0
 20 21  1  0
 21 22  1  6
 21 23  1  0
 23 24  2  0
 23 25  1  0
 25 26  1  0
 18  2  1  0
 21  2  1  0
 16  6  1  0
 16 10  1  0
M  END
$$$$
