
     RDKit          3D

 28 30  0  0  0  0  0  0  0  0999 V2000
  -12.5294   17.6053  -43.5962 C   0  0  0  0  0  0  0  0  0  0  0  0
  -12.4391   17.8821  -42.1152 C   0  0  0  0  0  0  0  0  0  0  0  0
  -13.3204   16.8457  -41.3905 C   0  0  0  0  0  0  0  0  0  0  0  0
  -13.5415   17.3081  -40.0059 N   0  0  0  0  0  0  0  0  0  0  0  0
  -12.5571   17.0439  -39.0128 C   0  0  0  0  0  0  0  0  0  0  0  0
  -12.8262   15.7663  -38.2399 C   0  0  0  0  0  0  0  0  0  0  0  0
  -11.7669   15.6216  -37.1720 C   0  0  0  0  0  0  0  0  0  0  0  0
  -14.7489   17.9673  -39.6880 C   0  0  0  0  0  0  0  0  0  0  0  0
  -15.2982   17.8932  -38.3989 C   0  0  0  0  0  0  0  0  0  0  0  0
  -16.4935   18.4812  -38.0513 C   0  0  0  0  0  0  0  0  0  0  0  0
  -16.9838   18.3368  -36.6440 C   0  0  0  0  0  0  0  0  0  0  0  0
  -17.1840   19.1627  -38.9723 N   0  0  0  0  0  0  0  0  0  0  0  0
  -16.6671   19.2498  -40.2429 C   0  0  0  0  0  0  0  0  0  0  0  0
  -17.1518   19.8626  -41.3791 C   0  0  0  0  0  0  0  0  0  0  0  0
  -18.3942   20.5992  -41.4659 C   0  0  0  0  0  0  0  0  0  0  0  0
  -18.4082   21.9677  -41.5853 C   0  0  0  0  0  0  0  0  0  0  0  0
  -19.5912   22.6005  -41.6598 N   0  0  0  0  0  0  0  0  0  0  0  0
  -20.7859   21.9788  -41.6254 C   0  0  0  0  0  0  0  0  0  0  0  0
  -22.0115   22.6755  -41.7027 N   0  0  0  0  0  0  0  0  0  0  0  0
  -22.0042   24.0994  -41.9008 C   0  0  0  0  0  0  0  0  0  0  0  0
  -23.2480   21.9609  -41.5844 C   0  0  0  0  0  0  0  0  0  0  0  0
  -20.7569   20.6014  -41.5049 C   0  0  0  0  0  0  0  0  0  0  0  0
  -19.5752   19.8919  -41.4238 C   0  0  0  0  0  0  0  0  0  0  0  0
  -19.6224   18.4022  -41.2929 C   0  0  0  0  0  0  0  0  0  0  0  0
  -16.2694   19.6531  -42.4052 C   0  0  0  0  0  0  0  0  0  0  0  0
  -16.3619   20.1221  -43.8236 C   0  0  0  0  0  0  0  0  0  0  0  0
  -15.2832   18.9256  -41.8646 N   0  0  0  0  0  0  0  0  0  0  0  0
  -15.5010   18.6767  -40.5834 N   0  0  0  0  0  0  0  0  0  0  0  0
  1  2  1  0
  2  3  1  0
  3  4  1  0
  4  5  1  0
  5  6  1  0
  6  7  1  0
  4  8  1  0
  8  9  2  0
  9 10  1  0
 10 11  1  0
 10 12  2  0
 12 13  1  0
 13 14  2  0
 14 15  1  0
 15 16  2  0
 16 17  1  0
 17 18  2  0
 18 19  1  0
 19 20  1  0
 19 21  1  0
 18 22  1  0
 22 23  2  0
 23 24  1  0
 14 25  1  0
 25 26  1  0
 25 27  2  0
 27 28  1  0
 28  8  1  0
 28 13  1  0
 23 15  1  0
M  END
$$$$
