
     RDKit          3D

 18 19  0  0  0  0  0  0  0  0999 V2000
  -17.4094   36.4147  -22.9765 C   0  0  0  0  0  0  0  0  0  0  0  0
  -18.7536   35.9819  -22.3891 C   0  0  0  0  0  0  0  0  0  0  0  0
  -19.3153   34.8167  -22.7243 C   0  0  0  0  0  0  0  0  0  0  0  0
  -20.5641   34.5334  -22.1084 C   0  0  0  0  0  0  0  0  0  0  0  0
  -20.8295   35.9410  -21.1118 S   0  0  0  0  0  0  0  0  0  0  0  0
  -19.3708   36.8145  -21.5111 C   0  0  0  0  0  0  0  0  0  0  0  0
  -19.0002   38.1025  -20.9834 C   0  0  0  0  0  0  0  0  0  0  0  0
  -18.0396   38.1750  -20.1765 O   0  0  0  0  0  0  0  0  0  0  0  0
  -19.6595   39.2459  -21.3321 O   0  0  0  0  0  0  0  0  0  0  0  0
  -19.2717   40.5173  -20.8549 C   0  0  0  0  0  0  0  0  0  0  0  0
  -18.8299   41.3580  -21.9973 C   0  0  0  0  0  0  0  0  0  0  0  0
  -18.8690   40.9012  -23.1750 O   0  0  0  0  0  0  0  0  0  0  0  0
  -18.3524   42.6933  -21.8050 N   0  0  0  0  0  0  0  0  0  0  0  0
  -17.8711   43.4756  -22.9251 C   0  0  0  0  0  0  0  0  0  0  0  0
  -18.1446   44.9501  -22.7609 C   0  0  0  0  0  0  0  0  0  0  0  0
  -18.9031   45.2018  -21.6126 O   0  0  0  0  0  0  0  0  0  0  0  0
  -18.2254   44.7282  -20.4786 C   0  0  0  0  0  0  0  0  0  0  0  0
  -18.3679   43.2335  -20.4519 C   0  0  0  0  0  0  0  0  0  0  0  0
  1  2  1  0
  2  3  1  0
  3  4  2  0
  4  5  1  0
  5  6  1  0
  6  7  1  0
  7  8  2  0
  7  9  1  0
  9 10  1  0
 10 11  1  0
 11 12  2  0
 11 13  1  0
 13 14  1  0
 14 15  1  0
 15 16  1  0
 16 17  1  0
 17 18  1  0
  6  2  2  0
 18 13  1  0
M  END
$$$$
