
     RDKit          3D

 12 12  0  0  0  0  0  0  0  0999 V2000
  -16.6060   35.2792  -23.2610 N   0  0  0  0  0  0  0  0  0  0  0  0
  -17.2861   34.4846  -24.2362 C   0  0  0  0  0  0  0  0  0  0  0  0
  -18.7625   34.3613  -23.9936 C   0  0  2  0  0  0  0  0  0  0  0  0
  -19.3530   35.5932  -23.7231 O   0  0  0  0  0  0  0  0  0  0  0  0
  -19.1049   33.3575  -22.9642 C   0  0  0  0  0  0  0  0  0  0  0  0
  -19.7084   33.6779  -21.7620 C   0  0  0  0  0  0  0  0  0  0  0  0
  -20.0116   32.7026  -20.8250 C   0  0  0  0  0  0  0  0  0  0  0  0
  -19.7209   31.3781  -21.0611 C   0  0  0  0  0  0  0  0  0  0  0  0
  -19.9996   30.3635  -20.1654 O   0  0  0  0  0  0  0  0  0  0  0  0
  -19.1195   31.0617  -22.2600 C   0  0  0  0  0  0  0  0  0  0  0  0
  -18.8071   29.7477  -22.5458 O   0  0  0  0  0  0  0  0  0  0  0  0
  -18.8204   32.0168  -23.1823 C   0  0  0  0  0  0  0  0  0  0  0  0
  1  2  1  0
  2  3  1  0
  3  4  1  1
  3  5  1  0
  5  6  2  0
  6  7  1  0
  7  8  2  0
  8  9  1  0
  8 10  1  0
 10 11  1  0
 10 12  2  0
 12  5  1  0
M  END
$$$$
