
     RDKit          3D

 10 10  0  0  0  0  0  0  0  0999 V2000
  -20.4012   42.1665  -23.3371 C   0  0  0  0  0  0  0  0  0  0  0  0
  -19.7696   40.8894  -22.9330 C   0  0  0  0  0  0  0  0  0  0  0  0
  -18.9107   40.3102  -23.6817 O   0  0  0  0  0  0  0  0  0  0  0  0
  -20.0626   40.2302  -21.7164 N   0  0  0  0  0  0  0  0  0  0  0  0
  -19.4610   38.9516  -21.3577 C   0  0  0  0  0  0  0  0  0  0  0  0
  -19.5019   38.1789  -20.4011 N   0  0  0  0  0  0  0  0  0  0  0  0
  -18.8054   37.0647  -20.4032 N   0  0  0  0  0  0  0  0  0  0  0  0
  -18.1308   36.6915  -21.2108 C   0  0  0  0  0  0  0  0  0  0  0  0
  -16.9981   35.3039  -21.6984 Cl  0  0  0  0  0  0  0  0  0  0  0  0
  -18.3140   38.0936  -22.4756 S   0  0  0  0  0  0  0  0  0  0  0  0
  1  2  1  0
  2  3  2  0
  2  4  1  0
  4  5  1  0
  5  6  2  0
  6  7  1  0
  7  8  2  0
  8  9  1  0
  8 10  1  0
 10  5  1  0
M  END
$$$$
