
     RDKit          3D

 23 25  0  0  0  0  0  0  0  0999 V2000
  -24.4477   24.3070  -26.7128 C   0  0  0  0  0  0  0  0  0  0  0  0
  -24.1478   25.5046  -27.4182 N   0  0  0  0  0  0  0  0  0  0  0  0
  -24.2788   25.3539  -28.8283 C   0  0  0  0  0  0  0  0  0  0  0  0
  -23.7335   26.5509  -29.5979 C   0  0  0  0  0  0  0  0  0  0  0  0
  -24.2753   27.8686  -29.1817 C   0  0  0  0  0  0  0  0  0  0  0  0
  -24.6648   28.8762  -29.8830 C   0  0  0  0  0  0  0  0  0  0  0  0
  -25.1690   30.0956  -29.1764 C   0  0  0  0  0  0  0  0  0  0  0  0
  -24.3451   30.4269  -28.1350 C   0  0  0  0  0  0  0  0  0  0  0  0
  -24.6914   31.4984  -27.3797 C   0  0  0  0  0  0  0  0  0  0  0  0
  -25.8458   32.2014  -27.6932 C   0  0  0  0  0  0  0  0  0  0  0  0
  -26.6628   31.8376  -28.7666 C   0  0  0  0  0  0  0  0  0  0  0  0
  -26.3262   30.7534  -29.5425 C   0  0  0  0  0  0  0  0  0  0  0  0
  -27.2391   30.5056  -30.6876 C   0  0  0  0  0  0  0  0  0  0  0  0
  -26.9794   29.8177  -31.8075 C   0  0  0  0  0  0  0  0  0  0  0  0
  -25.7207   29.1405  -32.1691 C   0  0  0  0  0  0  0  0  0  0  0  0
  -25.5560   28.9001  -33.5154 C   0  0  0  0  0  0  0  0  0  0  0  0
  -24.4104   28.3105  -33.9997 C   0  0  0  0  0  0  0  0  0  0  0  0
  -23.3700   27.9335  -33.1500 C   0  0  0  0  0  0  0  0  0  0  0  0
  -23.5112   28.1639  -31.8003 C   0  0  0  0  0  0  0  0  0  0  0  0
  -24.6700   28.7490  -31.3726 C   0  0  0  0  0  0  0  0  0  0  0  0
  -24.4607   27.8305  -27.7115 C   0  0  0  0  0  0  0  0  0  0  0  0
  -25.1701   26.5458  -27.2426 C   0  0  0  0  0  0  0  0  0  0  0  0
  -24.8975   27.7389  -29.0631 Cl  0  0  0  0  0  0  0  0  0  0  0  0
  1  2  1  0
  2  3  1  0
  3  4  1  0
  4  5  1  0
  5  6  2  3
  6  7  1  0
  7  8  2  0
  8  9  1  0
  9 10  2  0
 10 11  1  0
 11 12  2  0
 12 13  1  0
 13 14  2  0
 14 15  1  0
 15 16  2  0
 16 17  1  0
 17 18  2  0
 18 19  1  0
 19 20  2  0
  5 21  1  0
 21 22  1  0
 22  2  1  0
 20  6  1  0
 12  7  1  0
 20 15  1  0
M  END
$$$$
