
     RDKit          3D

 29 29  0  0  0  0  0  0  0  0999 V2000
  -20.8604   42.1204  -24.0506 C   0  0  0  0  0  0  0  0  0  0  0  0
  -19.9112   41.9772  -23.0273 O   0  0  0  0  0  0  0  0  0  0  0  0
  -19.1079   43.0408  -22.6903 C   0  0  0  0  0  0  0  0  0  0  0  0
  -19.2772   44.2276  -23.3920 C   0  0  0  0  0  0  0  0  0  0  0  0
  -18.5010   45.3182  -23.0952 C   0  0  0  0  0  0  0  0  0  0  0  0
  -17.5770   45.1745  -22.0967 C   0  0  0  0  0  0  0  0  0  0  0  0
  -17.3741   44.0052  -21.3686 C   0  0  0  0  0  0  0  0  0  0  0  0
  -16.4391   43.9175  -20.3838 O   0  0  0  0  0  0  0  0  0  0  0  0
  -15.5800   44.9593  -19.9790 C   0  0  0  0  0  0  0  0  0  0  0  0
  -14.7110   44.4429  -18.8730 C   0  0  0  0  0  0  0  0  0  0  0  0
  -13.7402   45.4570  -18.3410 C   0  0  0  0  0  0  0  0  0  0  0  0
  -12.8169   45.9611  -19.3122 N   0  0  0  0  0  0  0  0  0  0  0  0
  -18.1558   42.9136  -21.6707 C   0  0  0  0  0  0  0  0  0  0  0  0
  -18.0273   41.6443  -20.9632 C   0  0  0  0  0  0  0  0  0  0  0  0
  -18.7562   40.4877  -21.1181 C   0  0  0  0  0  0  0  0  0  0  0  0
  -18.3034   39.5106  -20.2262 C   0  0  0  0  0  0  0  0  0  0  0  0
  -18.8136   38.1827  -20.0857 N   0  0  0  0  0  0  0  0  0  0  0  0
  -19.8722   37.6762  -20.8555 C   0  0  0  0  0  0  0  0  0  0  0  0
  -19.6136   37.0059  -22.0196 C   0  0  0  0  0  0  0  0  0  0  0  0
  -20.6339   36.5168  -22.7668 N   0  0  0  0  0  0  0  0  0  0  0  0
  -21.9076   36.6813  -22.3789 C   0  0  0  0  0  0  0  0  0  0  0  0
  -22.9630   36.1544  -23.1829 C   0  0  0  0  0  0  0  0  0  0  0  0
  -23.8332   35.7337  -23.8615 N   0  0  0  0  0  0  0  0  0  0  0  0
  -22.1812   37.3580  -21.2031 C   0  0  0  0  0  0  0  0  0  0  0  0
  -21.1386   37.8393  -20.4709 N   0  0  0  0  0  0  0  0  0  0  0  0
  -17.3185   40.0833  -19.5526 N   0  0  0  0  0  0  0  0  0  0  0  0
  -17.1502   41.3381  -19.9802 N   0  0  0  0  0  0  0  0  0  0  0  0
  -17.6760   42.4585  -21.1589 Cl  0  0  0  0  0  0  0  0  0  0  0  0
  -17.6746   42.4604  -21.1586 Cl  0  0  0  0  0  0  0  0  0  0  0  0
  1  2  1  0
  2  3  1  0
  3  4  2  0
  4  5  1  0
  5  6  2  0
  6  7  1  0
  7  8  1  0
  8  9  1  0
  9 10  1  0
 10 11  1  0
 11 12  1  0
  7 13  2  0
 13 14  1  0
 14 15  2  0
 15 16  1  0
 16 17  1  0
 17 18  1  0
 18 19  2  0
 19 20  1  0
 20 21  2  0
 21 22  1  0
 22 23  3  0
 21 24  1  0
 24 25  2  0
 16 26  2  0
 26 27  1  0
 13  3  1  0
 27 14  1  0
 25 18  1  0
M  END
$$$$
