
     RDKit          3D

 11 11  0  0  0  0  0  0  0  0999 V2000
  -17.2450   37.4961  -22.4871 O   0  0  0  0  0  0  0  0  0  0  0  0
  -17.5745   36.6835  -21.4017 C   0  0  0  0  0  0  0  0  0  0  0  0
  -19.0871   36.6070  -21.2909 C   0  0  1  0  0  0  0  0  0  0  0  0
  -19.5840   37.9628  -21.4289 N   0  0  0  0  0  0  0  0  0  0  0  0
  -21.0060   38.0162  -21.1069 C   0  0  0  0  0  0  0  0  0  0  0  0
  -21.7301   37.2179  -22.1526 C   0  0  2  0  0  0  0  0  0  0  0  0
  -23.0792   37.1241  -21.7785 O   0  0  0  0  0  0  0  0  0  0  0  0
  -21.1927   35.8260  -22.2388 C   0  0  1  0  0  0  0  0  0  0  0  0
  -21.8138   35.1962  -23.3197 O   0  0  0  0  0  0  0  0  0  0  0  0
  -19.6911   35.7670  -22.3649 C   0  0  2  0  0  0  0  0  0  0  0  0
  -19.3040   34.4339  -22.2828 O   0  0  0  0  0  0  0  0  0  0  0  0
  1  2  1  0
  3  2  1  6
  3  4  1  0
  4  5  1  0
  5  6  1  0
  6  7  1  1
  6  8  1  0
  8  9  1  6
  8 10  1  0
 10 11  1  1
 10  3  1  0
M  END
$$$$
