
     RDKit          3D

 20 22  0  0  0  0  0  0  0  0999 V2000
  -43.9501   12.2270  -32.9606 O   0  0  0  0  0  0  0  0  0  0  0  0
  -44.3491   11.1453  -32.5125 C   0  0  0  0  0  0  0  0  0  0  0  0
  -45.5107   10.5038  -33.1224 C   0  0  0  0  0  0  0  0  0  0  0  0
  -45.4922   10.0943  -34.3743 C   0  0  0  0  0  0  0  0  0  0  0  0
  -45.0250    8.7666  -34.7782 C   0  0  0  0  0  0  0  0  0  0  0  0
  -45.2283    7.6264  -34.0519 C   0  0  0  0  0  0  0  0  0  0  0  0
  -44.7832    6.3877  -34.4451 C   0  0  0  0  0  0  0  0  0  0  0  0
  -44.0980    6.3075  -35.6354 C   0  0  0  0  0  0  0  0  0  0  0  0
  -43.6420    5.0751  -36.0499 C   0  0  0  0  0  0  0  0  0  0  0  0
  -42.9547    4.9964  -37.2444 C   0  0  0  0  0  0  0  0  0  0  0  0
  -42.7536    6.1409  -37.9679 C   0  0  0  0  0  0  0  0  0  0  0  0
  -43.1972    7.3756  -37.5762 C   0  0  0  0  0  0  0  0  0  0  0  0
  -43.8955    7.4561  -36.3628 C   0  0  0  0  0  0  0  0  0  0  0  0
  -44.3382    8.6440  -35.9578 N   0  0  0  0  0  0  0  0  0  0  0  0
  -43.6635   10.5246  -31.3897 C   0  0  0  0  0  0  0  0  0  0  0  0
  -43.5549    9.1348  -31.3194 C   0  0  0  0  0  0  0  0  0  0  0  0
  -42.9260    8.4694  -30.2976 C   0  0  0  0  0  0  0  0  0  0  0  0
  -42.3762    9.2031  -29.2947 N   0  0  0  0  0  0  0  0  0  0  0  0
  -42.4461   10.5462  -29.3026 C   0  0  0  0  0  0  0  0  0  0  0  0
  -43.0884   11.2160  -30.3471 C   0  0  0  0  0  0  0  0  0  0  0  0
  1  2  2  0
  2  3  1  0
  3  4  2  0
  4  5  1  0
  5  6  2  0
  6  7  1  0
  7  8  2  0
  8  9  1  0
  9 10  2  0
 10 11  1  0
 11 12  2  0
 12 13  1  0
 13 14  2  0
  2 15  1  0
 15 16  2  0
 16 17  1  0
 17 18  2  0
 18 19  1  0
 19 20  2  0
 14  5  1  0
 20 15  1  0
 13  8  1  0
M  END
$$$$
