
     RDKit          3D

 25 27  0  0  0  0  0  0  0  0999 V2000
  -21.1543   40.8546  -25.7022 C   0  0  0  0  0  0  0  0  0  0  0  0
  -20.0617   41.7228  -25.1028 C   0  0  0  0  0  0  0  0  0  0  0  0
  -19.5597   41.0448  -23.8305 C   0  0  0  0  0  0  0  0  0  0  0  0
  -18.3868   41.8152  -23.2775 C   0  0  0  0  0  0  0  0  0  0  0  0
  -17.8258   41.2293  -22.1704 O   0  0  0  0  0  0  0  0  0  0  0  0
  -17.9361   41.4621  -20.8410 C   0  0  0  0  0  0  0  0  0  0  0  0
  -17.3177   42.4610  -20.1509 C   0  0  0  0  0  0  0  0  0  0  0  0
  -16.4598   43.4059  -20.8320 C   0  0  0  0  0  0  0  0  0  0  0  0
  -16.6450   43.5962  -22.0567 O   0  0  0  0  0  0  0  0  0  0  0  0
  -15.3848   44.1702  -20.2227 C   0  0  0  0  0  0  0  0  0  0  0  0
  -14.1858   43.5532  -19.8735 C   0  0  0  0  0  0  0  0  0  0  0  0
  -14.0704   42.2137  -20.1544 F   0  0  0  0  0  0  0  0  0  0  0  0
  -13.1567   44.2456  -19.2744 C   0  0  0  0  0  0  0  0  0  0  0  0
  -13.2980   45.5866  -19.0047 C   0  0  0  0  0  0  0  0  0  0  0  0
  -12.2088   46.3644  -18.3601 C   0  0  0  0  0  0  0  0  0  0  0  0
  -14.4672   46.2302  -19.3345 C   0  0  0  0  0  0  0  0  0  0  0  0
  -15.4918   45.5028  -19.9399 C   0  0  0  0  0  0  0  0  0  0  0  0
  -16.6512   46.1497  -20.2377 F   0  0  0  0  0  0  0  0  0  0  0  0
  -17.4832   42.6323  -18.7994 C   0  0  0  0  0  0  0  0  0  0  0  0
  -18.2735   41.7981  -18.1236 N   0  0  0  0  0  0  0  0  0  0  0  0
  -18.9138   40.7929  -18.7261 C   0  0  0  0  0  0  0  0  0  0  0  0
  -19.7425   39.8186  -18.2983 N   0  0  0  0  0  0  0  0  0  0  0  0
  -20.1098   39.0466  -19.2816 N   0  0  0  0  0  0  0  0  0  0  0  0
  -19.5191   39.4988  -20.4234 C   0  0  0  0  0  0  0  0  0  0  0  0
  -18.7612   40.5984  -20.1033 C   0  0  0  0  0  0  0  0  0  0  0  0
  1  2  1  0
  2  3  1  0
  3  4  1  0
  4  5  1  0
  5  6  1  0
  6  7  2  0
  7  8  1  0
  8  9  2  0
  8 10  1  0
 10 11  2  0
 11 12  1  0
 11 13  1  0
 13 14  2  0
 14 15  1  0
 14 16  1  0
 16 17  2  0
 17 18  1  0
  7 19  1  0
 19 20  2  0
 20 21  1  0
 21 22  1  0
 22 23  1  0
 23 24  2  0
 24 25  1  0
 25  6  1  0
 17 10  1  0
 25 21  2  0
M  END
$$$$
