
     RDKit          3D

 22 22  0  0  0  0  0  0  0  0999 V2000
  -19.4784   45.2441  -20.1751 C   0  0  0  0  0  0  0  0  0  0  0  0
  -18.6803   44.1739  -20.8869 C   0  0  0  0  0  0  0  0  0  0  0  0
  -17.8086   43.4547  -19.8977 C   0  0  0  0  0  0  0  0  0  0  0  0
  -16.8826   44.3049  -19.2203 N   0  0  0  0  0  0  0  0  0  0  0  0
  -16.0708   45.1898  -19.9270 C   0  0  0  0  0  0  0  0  0  0  0  0
  -15.0404   44.6442  -20.8638 C   0  0  0  0  0  0  0  0  0  0  0  0
  -15.2748   46.0157  -18.8908 C   0  0  0  0  0  0  0  0  0  0  0  0
  -17.3545   42.0908  -20.2536 C   0  0  0  0  0  0  0  0  0  0  0  0
  -16.2846   41.9429  -21.0748 O   0  0  0  0  0  0  0  0  0  0  0  0
  -18.4408   41.0970  -20.4186 C   0  0  0  0  0  0  0  0  0  0  0  0
  -18.9899   40.4574  -19.2998 C   0  0  0  0  0  0  0  0  0  0  0  0
  -19.9996   39.5272  -19.3702 C   0  0  0  0  0  0  0  0  0  0  0  0
  -20.5171   39.1866  -20.5858 C   0  0  0  0  0  0  0  0  0  0  0  0
  -21.5368   38.2440  -20.6300 O   0  0  0  0  0  0  0  0  0  0  0  0
  -20.0255   39.7738  -21.7141 C   0  0  0  0  0  0  0  0  0  0  0  0
  -20.5490   39.4192  -22.8945 N   0  0  0  0  0  0  0  0  0  0  0  0
  -20.1001   39.9666  -24.0605 C   0  0  0  0  0  0  0  0  0  0  0  0
  -20.6738   39.5668  -25.2562 O   0  0  0  0  0  0  0  0  0  0  0  0
  -19.0895   40.8980  -23.9898 C   0  0  0  0  0  0  0  0  0  0  0  0
  -18.5546   41.2599  -22.7786 C   0  0  0  0  0  0  0  0  0  0  0  0
  -19.0013   40.7136  -21.6081 C   0  0  0  0  0  0  0  0  0  0  0  0
  -18.4139   41.9829  -21.1201 Cl  0  0  0  0  0  0  0  0  0  0  0  0
  1  2  1  0
  2  3  1  0
  3  4  1  0
  4  5  1  0
  5  6  1  0
  5  7  1  0
  3  8  1  0
  8  9  1  0
  8 10  1  0
 10 11  2  0
 11 12  1  0
 12 13  2  0
 13 14  1  0
 13 15  1  0
 15 16  2  0
 16 17  1  0
 17 18  1  0
 17 19  2  0
 19 20  1  0
 20 21  2  0
 21 10  1  0
 21 15  1  0
M  END
$$$$
