
     RDKit          3D

 21 22  0  0  0  0  0  0  0  0999 V2000
  -21.4342   44.4565  -22.2423 C   0  0  0  0  0  0  0  0  0  0  0  0
  -21.2044   43.0021  -22.0260 C   0  0  0  0  0  0  0  0  0  0  0  0
  -21.1699   42.7080  -20.5464 C   0  0  0  0  0  0  0  0  0  0  0  0
  -22.4855   42.3046  -22.5394 C   0  0  0  0  0  0  0  0  0  0  0  0
  -20.0287   42.4428  -22.7827 C   0  0  0  0  0  0  0  0  0  0  0  0
  -20.4924   42.3737  -24.1318 O   0  0  0  0  0  0  0  0  0  0  0  0
  -19.7993   41.0303  -22.3626 C   0  0  0  0  0  0  0  0  0  0  0  0
  -19.1087   40.1637  -23.3584 C   0  0  0  0  0  0  0  0  0  0  0  0
  -18.9338   38.8128  -22.7658 C   0  0  0  0  0  0  0  0  0  0  0  0
  -19.9100   37.8526  -22.7843 C   0  0  0  0  0  0  0  0  0  0  0  0
  -19.7360   36.5954  -22.2274 C   0  0  0  0  0  0  0  0  0  0  0  0
  -18.5314   36.3314  -21.6429 C   0  0  0  0  0  0  0  0  0  0  0  0
  -18.3203   34.7246  -20.9356 Cl  0  0  0  0  0  0  0  0  0  0  0  0
  -17.5226   37.2659  -21.6013 C   0  0  0  0  0  0  0  0  0  0  0  0
  -17.7295   38.5156  -22.1685 C   0  0  0  0  0  0  0  0  0  0  0  0
  -18.8388   43.3100  -22.8485 C   0  0  0  0  0  0  0  0  0  0  0  0
  -17.9134   43.2885  -21.7835 N   0  0  0  0  0  0  0  0  0  0  0  0
  -17.1592   42.2732  -21.3568 C   0  0  0  0  0  0  0  0  0  0  0  0
  -16.3901   42.6832  -20.3005 N   0  0  0  0  0  0  0  0  0  0  0  0
  -16.7048   43.9667  -20.1092 C   0  0  0  0  0  0  0  0  0  0  0  0
  -17.6259   44.3213  -21.0109 N   0  0  0  0  0  0  0  0  0  0  0  0
  1  2  1  0
  2  3  1  0
  2  4  1  0
  2  5  1  0
  5  6  1  0
  5  7  1  0
  7  8  1  0
  8  9  1  0
  9 10  2  0
 10 11  1  0
 11 12  2  0
 12 13  1  0
 12 14  1  0
 14 15  2  0
  5 16  1  0
 16 17  1  0
 17 18  1  0
 18 19  2  0
 19 20  1  0
 20 21  2  0
 15  9  1  0
 21 17  1  0
M  END
$$$$
