
     RDKit          3D

 25 27  0  0  0  0  0  0  0  0999 V2000
    5.0131   21.3863  -18.2041 C   0  0  0  0  0  0  0  0  0  0  0  0
    4.0345   22.1802  -18.9901 C   0  0  0  0  0  0  0  0  0  0  0  0
    3.7846   23.4784  -18.8915 C   0  0  0  0  0  0  0  0  0  0  0  0
    4.5187   24.3258  -17.9111 C   0  0  0  0  0  0  0  0  0  0  0  0
    5.5347   25.1863  -18.4919 C   0  0  0  0  0  0  0  0  0  0  0  0
    6.5526   24.7017  -19.0502 O   0  0  0  0  0  0  0  0  0  0  0  0
    5.4087   26.5622  -18.4421 O   0  0  0  0  0  0  0  0  0  0  0  0
    2.7504   23.8441  -19.8452 C   0  0  0  0  0  0  0  0  0  0  0  0
    2.1653   25.0516  -20.0835 C   0  0  0  0  0  0  0  0  0  0  0  0
    1.1783   25.1288  -21.0385 C   0  0  0  0  0  0  0  0  0  0  0  0
    0.5685   26.3013  -21.3167 F   0  0  0  0  0  0  0  0  0  0  0  0
    0.7639   24.0108  -21.7621 C   0  0  0  0  0  0  0  0  0  0  0  0
    1.3663   22.7802  -21.5126 C   0  0  0  0  0  0  0  0  0  0  0  0
    2.3508   22.7166  -20.5607 C   0  0  0  0  0  0  0  0  0  0  0  0
    3.1480   21.6170  -20.0521 C   0  0  0  0  0  0  0  0  0  0  0  0
    3.1126   20.3532  -20.3926 C   0  0  0  0  0  0  0  0  0  0  0  0
    2.1360   19.8050  -21.3047 C   0  0  0  0  0  0  0  0  0  0  0  0
    2.6332   18.8559  -22.2200 C   0  0  0  0  0  0  0  0  0  0  0  0
    1.7985   18.2387  -23.1247 C   0  0  0  0  0  0  0  0  0  0  0  0
    0.4648   18.5481  -23.1369 C   0  0  0  0  0  0  0  0  0  0  0  0
   -0.6183   17.7535  -24.2759 S   0  0  0  0  0  4  0  0  0  0  0  0
    0.1738   16.5080  -25.2635 C   0  0  0  0  0  0  0  0  0  0  0  0
   -1.4292   18.7141  -25.1082 O   0  0  0  0  0  0  0  0  0  0  0  0
   -0.0155   19.4742  -22.2431 C   0  0  0  0  0  0  0  0  0  0  0  0
    0.8186   20.1069  -21.3236 C   0  0  0  0  0  0  0  0  0  0  0  0
  1  2  1  0
  2  3  2  0
  3  4  1  0
  4  5  1  0
  5  6  2  0
  5  7  1  0
  3  8  1  0
  8  9  2  0
  9 10  1  0
 10 11  1  0
 10 12  2  0
 12 13  1  0
 13 14  2  0
 14 15  1  0
 15 16  2  0
 16 17  1  0
 17 18  2  0
 18 19  1  0
 19 20  2  0
 20 21  1  0
 21 22  1  0
 21 23  2  0
 20 24  1  0
 24 25  2  0
 15  2  1  0
 25 17  1  0
 14  8  1  0
M  END
$$$$
