
     RDKit          3D

 21 24  0  0  0  0  0  0  0  0999 V2000
  -19.1320   36.7682  -20.5137 C   0  0  0  0  0  0  0  0  0  0  0  0
  -19.0519   36.9609  -21.9994 C   0  0  2  0  0  0  0  0  0  0  0  0
  -17.9719   37.8742  -22.4391 C   0  0  0  0  0  0  0  0  0  0  0  0
  -18.2614   39.2578  -21.8932 C   0  0  0  0  0  0  0  0  0  0  0  0
  -19.5574   39.7499  -22.4663 C   0  0  1  0  0  0  0  0  0  0  0  0
  -20.6831   38.8454  -22.0502 C   0  0  1  0  0  0  0  0  0  0  0  0
  -22.0350   39.2910  -22.4485 C   0  0  0  0  0  0  0  0  0  0  0  0
  -22.2392   40.6869  -22.8290 C   0  0  0  0  0  0  0  0  0  0  0  0
  -21.0396   41.5556  -22.9739 C   0  0  1  0  0  0  0  0  0  0  0  0
  -21.4516   42.9813  -22.8409 C   0  0  0  0  0  0  0  0  0  0  0  0
  -20.4046   43.9613  -22.5395 C   0  0  2  0  0  0  0  0  0  0  0  0
  -20.1398   44.7558  -23.6817 O   0  0  0  0  0  0  0  0  0  0  0  0
  -19.1258   43.4671  -21.9957 C   0  0  0  0  0  0  0  0  0  0  0  0
  -18.7550   42.0737  -22.3459 C   0  0  0  0  0  0  0  0  0  0  0  0
  -19.8984   41.1558  -22.0669 C   0  0  2  0  0  0  0  0  0  0  0  0
  -20.2865   41.2781  -20.6143 C   0  0  0  0  0  0  0  0  0  0  0  0
  -20.3573   37.4964  -22.5882 C   0  0  2  0  0  0  0  0  0  0  0  0
  -21.2953   36.4002  -22.2794 C   0  0  0  0  0  0  0  0  0  0  0  0
  -20.4532   35.1595  -22.6186 C   0  0  0  0  0  0  0  0  0  0  0  0
  -19.0482   35.6255  -22.6313 C   0  0  0  0  0  0  0  0  0  0  0  0
  -18.0869   35.0473  -23.0642 O   0  0  0  0  0  0  0  0  0  0  0  0
  2  1  1  1
  2  3  1  0
  3  4  1  0
  5  4  1  1
  5  6  1  0
  6  7  1  6
  7  8  1  0
  9  8  1  1
  9 10  1  0
 10 11  1  0
 11 12  1  6
 11 13  1  0
 13 14  1  0
 14 15  1  0
 15 16  1  1
  6 17  1  0
 17 18  1  1
 18 19  1  0
 19 20  1  0
 20 21  2  0
 17  2  1  0
 20  2  1  0
 15  5  1  0
 15  9  1  0
M  END
$$$$
