
     RDKit          3D

 48 52  0  0  0  0  0  0  0  0999 V2000
  -17.7128   23.1656  -48.3192 C   0  0  0  0  0  0  0  0  0  0  0  0
  -18.4083   22.8745  -47.2676 C   0  0  0  0  0  0  0  0  0  0  0  0
  -17.8744   22.2842  -46.0481 C   0  0  0  0  0  0  0  0  0  0  0  0
  -17.1735   21.2141  -46.1500 O   0  0  0  0  0  0  0  0  0  0  0  0
  -18.0993   22.8435  -44.7771 N   0  0  0  0  0  0  0  0  0  0  0  0
  -17.8156   22.2723  -43.5172 C   0  0  0  0  0  0  0  0  0  0  0  0
  -18.0767   22.8643  -42.3208 C   0  0  0  0  0  0  0  0  0  0  0  0
  -17.7729   22.2362  -41.0921 C   0  0  0  0  0  0  0  0  0  0  0  0
  -17.1977   20.9949  -41.0683 C   0  0  0  0  0  0  0  0  0  0  0  0
  -16.8384   20.2564  -39.8355 C   0  0  0  0  0  0  0  0  0  0  0  0
  -16.2842   18.9597  -40.1140 N   0  0  0  0  0  0  0  0  0  0  0  0
  -14.9401   18.8157  -40.5032 C   0  0  0  0  0  0  0  0  0  0  0  0
  -14.1859   19.8117  -40.6597 O   0  0  0  0  0  0  0  0  0  0  0  0
  -14.3492   17.5398  -40.7449 N   0  0  0  0  0  0  0  0  0  0  0  0
  -13.0391   17.3959  -41.2632 C   0  0  0  0  0  0  0  0  0  0  0  0
  -12.7647   16.9856  -42.5474 C   0  0  0  0  0  0  0  0  0  0  0  0
  -14.0860   16.6169  -43.6304 Cl  0  0  0  0  0  0  0  0  0  0  0  0
  -11.4409   16.8815  -42.9293 C   0  0  0  0  0  0  0  0  0  0  0  0
  -11.1618   16.4619  -44.2408 O   0  0  0  0  0  0  0  0  0  0  0  0
   -9.9264   16.8381  -44.8177 C   0  0  0  0  0  0  0  0  0  0  0  0
  -10.4366   17.1845  -42.0348 C   0  0  0  0  0  0  0  0  0  0  0  0
  -10.7047   17.5894  -40.7680 C   0  0  0  0  0  0  0  0  0  0  0  0
   -9.6818   17.8903  -39.8804 O   0  0  0  0  0  0  0  0  0  0  0  0
   -8.3328   17.8326  -40.3249 C   0  0  0  0  0  0  0  0  0  0  0  0
  -12.0109   17.7005  -40.3651 C   0  0  0  0  0  0  0  0  0  0  0  0
  -12.3414   18.2241  -38.7282 Cl  0  0  0  0  0  0  0  0  0  0  0  0
  -17.1180   17.8168  -40.0003 C   0  0  0  0  0  0  0  0  0  0  0  0
  -18.2014   17.8255  -39.1487 C   0  0  0  0  0  0  0  0  0  0  0  0
  -19.0390   16.7254  -39.0178 C   0  0  0  0  0  0  0  0  0  0  0  0
  -20.1593   16.7311  -38.1636 N   0  0  0  0  0  0  0  0  0  0  0  0
  -21.0024   17.8154  -37.8778 C   0  0  0  0  0  0  0  0  0  0  0  0
  -21.8107   17.7565  -36.7338 C   0  0  0  0  0  0  0  0  0  0  0  0
  -22.6733   18.7625  -36.3688 C   0  0  0  0  0  0  0  0  0  0  0  0
  -22.7883   19.8993  -37.1228 C   0  0  0  0  0  0  0  0  0  0  0  0
  -23.6410   20.9769  -36.8022 N   0  0  0  0  0  0  0  0  0  0  0  0
  -23.9864   21.2783  -35.4190 C   0  0  0  0  0  0  0  0  0  0  0  0
  -24.7753   22.5654  -35.3263 C   0  0  0  0  0  0  0  0  0  0  0  0
  -25.8947   22.5951  -36.2251 N   0  0  0  0  0  0  0  0  0  0  0  0
  -27.1457   22.2198  -35.5946 C   0  0  0  0  0  0  0  0  0  0  0  0
  -25.6922   21.9434  -37.4738 C   0  0  0  0  0  0  0  0  0  0  0  0
  -24.2177   21.8183  -37.8140 C   0  0  0  0  0  0  0  0  0  0  0  0
  -21.9905   19.9670  -38.2610 C   0  0  0  0  0  0  0  0  0  0  0  0
  -21.1204   18.9584  -38.6344 C   0  0  0  0  0  0  0  0  0  0  0  0
  -18.7204   15.6659  -39.7709 N   0  0  0  0  0  0  0  0  0  0  0  0
  -17.6642   15.6574  -40.6007 C   0  0  0  0  0  0  0  0  0  0  0  0
  -16.8440   16.7033  -40.7444 N   0  0  0  0  0  0  0  0  0  0  0  0
  -16.9373   20.4049  -42.2828 C   0  0  0  0  0  0  0  0  0  0  0  0
  -17.2259   21.0002  -43.4760 C   0  0  0  0  0  0  0  0  0  0  0  0
  1  2  2  0
  2  3  1  0
  3  4  2  0
  3  5  1  0
  5  6  1  0
  6  7  2  0
  7  8  1  0
  8  9  2  0
  9 10  1  0
 10 11  1  0
 11 12  1  0
 12 13  2  0
 12 14  1  0
 14 15  1  0
 15 16  2  0
 16 17  1  0
 16 18  1  0
 18 19  1  0
 19 20  1  0
 18 21  2  0
 21 22  1  0
 22 23  1  0
 23 24  1  0
 22 25  2  0
 25 26  1  0
 11 27  1  0
 27 28  2  0
 28 29  1  0
 29 30  1  0
 30 31  1  0
 31 32  2  0
 32 33  1  0
 33 34  2  0
 34 35  1  0
 35 36  1  0
 36 37  1  0
 37 38  1  0
 38 39  1  0
 38 40  1  0
 40 41  1  0
 34 42  1  0
 42 43  2  0
 29 44  2  0
 44 45  1  0
 45 46  2  0
  9 47  1  0
 47 48  2  0
 48  6  1  0
 25 15  1  0
 46 27  1  0
 43 31  1  0
 41 35  1  0
M  END
$$$$
