
     RDKit          3D

 21 22  0  0  0  0  0  0  0  0999 V2000
  -19.2519   14.5535  -30.2636 O   0  0  0  0  0  0  0  0  0  0  0  0
  -18.6605   15.6390  -30.4875 C   0  0  0  0  0  0  0  0  0  0  0  0
  -17.3994   15.8838  -29.9040 N   0  0  0  0  0  0  0  0  0  0  0  0
  -16.4513   14.8514  -29.6247 C   0  0  0  0  0  0  0  0  0  0  0  0
  -15.0996   15.0390  -29.8726 C   0  0  0  0  0  0  0  0  0  0  0  0
  -14.1624   14.0728  -29.6177 C   0  0  0  0  0  0  0  0  0  0  0  0
  -14.5493   12.8578  -29.0945 C   0  0  0  0  0  0  0  0  0  0  0  0
  -13.6291   11.8178  -28.8087 N   0  0  0  0  0  4  0  0  0  0  0  0
  -12.4212   11.9921  -29.0568 O   0  0  0  0  0  0  0  0  0  0  0  0
  -14.0007   10.6169  -28.2678 O   0  0  0  0  0  1  0  0  0  0  0  0
  -15.9040   12.6714  -28.8467 C   0  0  0  0  0  0  0  0  0  0  0  0
  -16.8488   13.6402  -29.1016 C   0  0  0  0  0  0  0  0  0  0  0  0
  -18.1999   13.4383  -28.8482 O   0  0  0  0  0  0  0  0  0  0  0  0
  -19.2671   16.6125  -31.3275 N   0  0  0  0  0  0  0  0  0  0  0  0
  -20.7005   16.6879  -31.3907 C   0  0  0  0  0  0  0  0  0  0  0  0
  -21.4648   15.6431  -31.8485 C   0  0  0  0  0  0  0  0  0  0  0  0
  -22.8412   15.7484  -31.8963 C   0  0  0  0  0  0  0  0  0  0  0  0
  -23.4942   16.8939  -31.4908 C   0  0  0  0  0  0  0  0  0  0  0  0
  -22.7242   17.9488  -31.0288 C   0  0  0  0  0  0  0  0  0  0  0  0
  -21.3502   17.8358  -30.9841 C   0  0  0  0  0  0  0  0  0  0  0  0
  -20.2679   19.2833  -30.3484 Br  0  0  0  0  0  0  0  0  0  0  0  0
  1  2  2  0
  2  3  1  0
  3  4  1  0
  4  5  2  0
  5  6  1  0
  6  7  2  0
  7  8  1  0
  8  9  2  0
  8 10  1  0
  7 11  1  0
 11 12  2  0
 12 13  1  0
  2 14  1  0
 14 15  1  0
 15 16  2  0
 16 17  1  0
 17 18  2  0
 18 19  1  0
 19 20  2  0
 20 21  1  0
 12  4  1  0
 20 15  1  0
M  CHG  2   8   1  10  -1
M  END
$$$$
