
     RDKit          3D

 19 19  0  0  0  0  0  0  0  0999 V2000
  -21.5807   38.2494  -18.9898 N   0  0  0  0  0  0  0  0  0  0  0  0
  -20.6167   38.6022  -19.9707 C   0  0  0  0  0  0  0  0  0  0  0  0
  -19.9398   37.5955  -20.6379 C   0  0  0  0  0  0  0  0  0  0  0  0
  -18.9850   37.8906  -21.6085 C   0  0  0  0  0  0  0  0  0  0  0  0
  -18.2590   36.8200  -22.3270 C   0  0  0  0  0  0  0  0  0  0  0  0
  -18.9724   35.6293  -22.1365 F   0  0  0  0  0  0  0  0  0  0  0  0
  -18.3269   37.0274  -23.7124 F   0  0  0  0  0  0  0  0  0  0  0  0
  -16.9947   36.5903  -21.8925 F   0  0  0  0  0  0  0  0  0  0  0  0
  -18.7215   39.2003  -21.8975 C   0  0  0  0  0  0  0  0  0  0  0  0
  -17.5366   39.6529  -23.1004 S   0  0  0  0  0  6  0  0  0  0  0  0
  -16.2852   40.6274  -22.4776 N   0  0  0  0  0  0  0  0  0  0  0  0
  -16.9044   38.3813  -23.6579 O   0  0  0  0  0  0  0  0  0  0  0  0
  -18.2085   40.2892  -24.2980 O   0  0  0  0  0  0  0  0  0  0  0  0
  -19.4263   40.1966  -21.2019 C   0  0  0  0  0  0  0  0  0  0  0  0
  -20.3678   39.9265  -20.2452 C   0  0  0  0  0  0  0  0  0  0  0  0
  -21.2017   41.2319  -19.4245 S   0  0  0  0  0  6  0  0  0  0  0  0
  -22.4240   41.9265  -20.3984 N   0  0  0  0  0  0  0  0  0  0  0  0
  -21.8467   40.7025  -18.1784 O   0  0  0  0  0  0  0  0  0  0  0  0
  -20.1630   42.2288  -18.9913 O   0  0  0  0  0  0  0  0  0  0  0  0
  1  2  1  0
  2  3  2  0
  3  4  1  0
  4  5  1  0
  5  6  1  0
  5  7  1  0
  5  8  1  0
  4  9  2  0
  9 10  1  0
 10 11  1  0
 10 12  2  0
 10 13  2  0
  9 14  1  0
 14 15  2  0
 15 16  1  0
 16 17  1  0
 16 18  2  0
 16 19  2  0
 15  2  1  0
M  END
$$$$
