
     RDKit          3D

 37 41  0  0  0  0  0  0  0  0999 V2000
  -19.3410   41.7560  -26.5883 C   0  0  0  0  0  0  0  0  0  0  0  0
  -18.8463   42.1720  -25.2012 C   0  0  0  0  0  0  0  0  0  0  0  0
  -17.3620   41.3198  -24.7865 S   0  0  0  0  0  6  0  0  0  0  0  0
  -17.3796   39.9469  -25.4193 O   0  0  0  0  0  0  0  0  0  0  0  0
  -16.2228   42.0769  -25.4580 O   0  0  0  0  0  0  0  0  0  0  0  0
  -17.0699   41.2569  -23.1255 N   0  0  0  0  0  0  0  0  0  0  0  0
  -17.7263   40.4939  -22.1350 C   0  0  0  0  0  0  0  0  0  0  0  0
  -17.4116   40.5309  -20.8085 C   0  0  0  0  0  0  0  0  0  0  0  0
  -18.0906   39.7265  -19.8816 C   0  0  0  0  0  0  0  0  0  0  0  0
  -19.0885   38.8906  -20.3290 C   0  0  0  0  0  0  0  0  0  0  0  0
  -19.4328   38.8320  -21.6779 C   0  0  0  0  0  0  0  0  0  0  0  0
  -18.7450   39.6328  -22.5563 C   0  0  0  0  0  0  0  0  0  0  0  0
  -20.4963   37.8481  -21.8025 C   0  0  0  0  0  0  0  0  0  0  0  0
  -21.1288   37.5728  -22.9020 C   0  0  0  0  0  0  0  0  0  0  0  0
  -20.6100   36.5022  -23.7293 N   0  0  0  0  0  0  0  0  0  0  0  0
  -21.3247   35.9745  -24.8108 C   0  0  0  0  0  0  0  0  0  0  0  0
  -22.4838   35.2823  -24.6988 C   0  0  0  0  0  0  0  0  0  0  0  0
  -23.1335   34.7904  -25.8129 C   0  0  0  0  0  0  0  0  0  0  0  0
  -22.6324   34.9812  -27.0906 C   0  0  0  0  0  0  0  0  0  0  0  0
  -23.2774   34.4833  -28.3243 C   0  0  0  0  0  0  0  0  0  0  0  0
  -22.6935   33.2591  -28.8020 N   0  0  0  0  0  0  0  0  0  0  0  0
  -23.1493   32.8483  -30.0974 C   0  0  0  0  0  0  0  0  0  0  0  0
  -24.5207   32.2425  -30.1021 C   0  0  0  0  0  0  0  0  0  0  0  0
  -24.6076   31.1456  -29.0894 C   0  0  0  0  0  0  0  0  0  0  0  0
  -24.0707   31.5295  -27.7398 C   0  0  0  0  0  0  0  0  0  0  0  0
  -22.7206   32.2114  -27.8285 C   0  0  0  0  0  0  0  0  0  0  0  0
  -21.4531   35.6855  -27.2031 C   0  0  0  0  0  0  0  0  0  0  0  0
  -20.8174   36.1693  -26.0864 C   0  0  0  0  0  0  0  0  0  0  0  0
  -22.3811   38.1280  -23.3605 C   0  0  0  0  0  0  0  0  0  0  0  0
  -22.4473   39.1155  -24.2987 C   0  0  0  0  0  0  0  0  0  0  0  0
  -23.6567   39.5571  -24.7762 C   0  0  0  0  0  0  0  0  0  0  0  0
  -24.8510   39.0225  -24.3288 C   0  0  0  0  0  0  0  0  0  0  0  0
  -24.7929   38.0222  -23.3789 C   0  0  0  0  0  0  0  0  0  0  0  0
  -23.5586   37.5787  -22.8984 C   0  0  0  0  0  0  0  0  0  0  0  0
  -20.7892   37.3003  -20.4795 C   0  0  0  0  0  0  0  0  0  0  0  0
  -21.6484   36.4181  -20.1724 O   0  0  0  0  0  0  0  0  0  0  0  0
  -19.9028   37.9667  -19.5954 N   0  0  0  0  0  0  0  0  0  0  0  0
  1  2  1  0
  2  3  1  0
  3  4  2  0
  3  5  2  0
  3  6  1  0
  6  7  1  0
  7  8  2  0
  8  9  1  0
  9 10  2  0
 10 11  1  0
 11 12  2  0
 11 13  1  0
 13 14  2  0
 14 15  1  0
 15 16  1  0
 16 17  2  0
 17 18  1  0
 18 19  2  0
 19 20  1  0
 20 21  1  0
 21 22  1  0
 22 23  1  0
 23 24  1  0
 24 25  1  0
 25 26  1  0
 19 27  1  0
 27 28  2  0
 14 29  1  0
 29 30  2  0
 30 31  1  0
 31 32  2  0
 32 33  1  0
 33 34  2  0
 13 35  1  0
 35 36  2  0
 35 37  1  0
 12  7  1  0
 28 16  1  0
 34 29  1  0
 37 10  1  0
 26 21  1  0
M  END
$$$$
