
     RDKit          3D

 23 24  0  0  0  0  0  0  0  0999 V2000
  -15.6578   22.3396  -41.8665 C   0  0  0  0  0  0  0  0  0  0  0  0
  -16.9434   21.7721  -41.6048 C   0  0  0  0  0  0  0  0  0  0  0  0
  -17.4256   20.6604  -42.4273 C   0  0  0  0  0  0  0  0  0  0  0  0
  -18.8006   20.4529  -42.6418 N   0  0  0  0  0  0  0  0  0  0  0  0
  -19.0032   19.4413  -43.4582 N   0  0  0  0  0  0  0  0  0  0  0  0
  -20.2867   18.8075  -43.6432 C   0  0  0  0  0  0  0  0  0  0  0  0
  -20.7780   18.1943  -42.2819 C   0  0  0  0  0  0  0  0  0  0  0  0
  -21.4356   19.1336  -41.5175 O   0  0  0  0  0  0  0  0  0  0  0  0
  -17.7984   18.9465  -43.8613 C   0  0  0  0  0  0  0  0  0  0  0  0
  -17.6346   18.0414  -44.9724 C   0  0  0  0  0  0  0  0  0  0  0  0
  -16.6533   16.9885  -45.1563 C   0  0  0  0  0  0  0  0  0  0  0  0
  -16.8367   19.7153  -43.1818 C   0  0  0  0  0  0  0  0  0  0  0  0
  -15.4612   19.4612  -43.2597 O   0  0  0  0  0  0  0  0  0  0  0  0
  -14.7294   19.0144  -42.1609 C   0  0  0  0  0  0  0  0  0  0  0  0
  -13.3592   18.9437  -42.2232 C   0  0  0  0  0  0  0  0  0  0  0  0
  -12.5975   18.4137  -41.1023 C   0  0  0  0  0  0  0  0  0  0  0  0
  -11.2368   18.1031  -41.2946 C   0  0  0  0  0  0  0  0  0  0  0  0
  -10.0281   17.8215  -41.4832 N   0  0  0  0  0  0  0  0  0  0  0  0
  -13.2984   18.0034  -40.0158 C   0  0  0  0  0  0  0  0  0  0  0  0
  -14.6769   18.0873  -39.9147 C   0  0  0  0  0  0  0  0  0  0  0  0
  -15.4087   17.6012  -38.8219 C   0  0  0  0  0  0  0  0  0  0  0  0
  -16.0557   17.1969  -37.8708 N   0  0  0  0  0  0  0  0  0  0  0  0
  -15.3240   18.5901  -41.0246 C   0  0  0  0  0  0  0  0  0  0  0  0
  1  2  1  0
  2  3  1  0
  3  4  2  0
  4  5  1  0
  5  6  1  0
  6  7  1  0
  7  8  1  0
  5  9  1  0
  9 10  1  0
 10 11  1  0
  9 12  2  0
 12 13  1  0
 13 14  1  0
 14 15  2  0
 15 16  1  0
 16 17  1  0
 17 18  3  0
 16 19  2  0
 19 20  1  0
 20 21  1  0
 21 22  3  0
 20 23  2  0
 12  3  1  0
 23 14  1  0
M  END
$$$$
