
     RDKit          3D

 13 14  0  0  0  0  0  0  0  0999 V2000
  -24.6125   22.4241  -38.2241 C   0  0  0  0  0  0  0  0  0  0  0  0
  -24.3145   23.6157  -37.3818 C   0  0  0  0  0  0  0  0  0  0  0  0
  -23.0660   24.0337  -37.2150 C   0  0  0  0  0  0  0  0  0  0  0  0
  -22.7476   25.2072  -36.3884 C   0  0  0  0  0  0  0  0  0  0  0  0
  -21.5461   25.5784  -36.2507 O   0  0  0  0  0  0  0  0  0  0  0  0
  -23.7900   25.9687  -35.7115 C   0  0  0  0  0  0  0  0  0  0  0  0
  -23.5149   27.0791  -34.9263 C   0  0  0  0  0  0  0  0  0  0  0  0
  -24.5157   27.7878  -34.2930 C   0  0  0  0  0  0  0  0  0  0  0  0
  -25.8203   27.3683  -34.4546 C   0  0  0  0  0  0  0  0  0  0  0  0
  -26.0875   26.2634  -35.2366 C   0  0  0  0  0  0  0  0  0  0  0  0
  -25.0867   25.5426  -35.8789 C   0  0  0  0  0  0  0  0  0  0  0  0
  -25.3598   24.3790  -36.7033 C   0  0  0  0  0  0  0  0  0  0  0  0
  -26.5402   23.9889  -36.8573 O   0  0  0  0  0  0  0  0  0  0  0  0
  1  2  1  0
  2  3  2  0
  3  4  1  0
  4  5  2  0
  4  6  1  0
  6  7  2  0
  7  8  1  0
  8  9  2  0
  9 10  1  0
 10 11  2  0
 11 12  1  0
 12 13  2  0
 12  2  1  0
 11  6  1  0
M  END
$$$$
