
     RDKit          3D

 39 43  0  0  0  0  0  0  0  0999 V2000
  -20.5154   40.3070  -18.8732 C   0  0  0  0  0  0  0  0  0  0  0  0
  -21.2846   41.2544  -19.7322 C   0  0  0  0  0  0  0  0  0  0  0  0
  -20.5714   41.7494  -20.8354 O   0  0  0  0  0  0  0  0  0  0  0  0
  -20.0128   40.9377  -21.8226 C   0  0  0  0  0  0  0  0  0  0  0  0
  -20.5615   39.7323  -22.1694 C   0  0  0  0  0  0  0  0  0  0  0  0
  -19.9839   38.9507  -23.1533 C   0  0  0  0  0  0  0  0  0  0  0  0
  -18.8469   39.4232  -23.7667 C   0  0  0  0  0  0  0  0  0  0  0  0
  -18.2877   40.6188  -23.4346 C   0  0  0  0  0  0  0  0  0  0  0  0
  -18.8570   41.3981  -22.4589 C   0  0  0  0  0  0  0  0  0  0  0  0
  -18.3264   42.6674  -22.0612 N   0  0  0  0  0  0  0  0  0  0  0  0
  -18.6247   43.8019  -22.7105 C   0  0  0  0  0  0  0  0  0  0  0  0
  -19.5469   43.8411  -23.8538 C   0  0  0  0  0  0  0  0  0  0  0  0
  -18.9913   44.6268  -25.0063 C   0  0  0  0  0  0  0  0  0  0  0  0
  -20.8329   44.4011  -23.4969 N   0  0  0  0  0  0  0  0  0  0  0  0
  -20.7989   45.2282  -22.3506 C   0  0  0  0  0  0  0  0  0  0  0  0
  -22.0759   45.5398  -21.6695 C   0  0  0  0  0  0  0  0  0  0  0  0
  -23.1424   44.6124  -21.8562 N   0  0  0  0  0  0  0  0  0  0  0  0
  -24.0989   44.4180  -20.8282 C   0  0  0  0  0  0  0  0  0  0  0  0
  -23.9498   45.0131  -19.7065 O   0  0  0  0  0  0  0  0  0  0  0  0
  -25.2658   43.5341  -21.0412 C   0  0  0  0  0  0  0  0  0  0  0  0
  -26.2801   43.7944  -20.1304 O   0  0  0  0  0  0  0  0  0  0  0  0
  -26.2808   43.6450  -18.7772 C   0  0  0  0  0  0  0  0  0  0  0  0
  -25.2427   43.8826  -17.9283 C   0  0  0  0  0  0  0  0  0  0  0  0
  -25.3725   43.6884  -16.5577 C   0  0  0  0  0  0  0  0  0  0  0  0
  -26.5510   43.2496  -15.9999 C   0  0  0  0  0  0  0  0  0  0  0  0
  -26.7641   42.9899  -14.2828 Cl  0  0  0  0  0  0  0  0  0  0  0  0
  -27.6086   43.0055  -16.8451 C   0  0  0  0  0  0  0  0  0  0  0  0
  -27.4744   43.1989  -18.1961 C   0  0  0  0  0  0  0  0  0  0  0  0
  -23.2155   43.8959  -23.0934 C   0  0  0  0  0  0  0  0  0  0  0  0
  -21.8910   43.4471  -23.5740 C   0  0  0  0  0  0  0  0  0  0  0  0
  -18.0852   44.9947  -22.3149 N   0  0  0  0  0  0  0  0  0  0  0  0
  -17.2444   45.1037  -21.2772 C   0  0  0  0  0  0  0  0  0  0  0  0
  -16.7044   46.3199  -20.8872 C   0  0  0  0  0  0  0  0  0  0  0  0
  -15.8407   46.4207  -19.8193 C   0  0  0  0  0  0  0  0  0  0  0  0
  -15.5264   45.2507  -19.1399 C   0  0  0  0  0  0  0  0  0  0  0  0
  -16.0710   44.0443  -19.5382 C   0  0  0  0  0  0  0  0  0  0  0  0
  -16.9286   43.9411  -20.5981 C   0  0  0  0  0  0  0  0  0  0  0  0
  -17.4852   42.7454  -21.0152 C   0  0  0  0  0  0  0  0  0  0  0  0
  -17.1991   41.6926  -20.4001 O   0  0  0  0  0  0  0  0  0  0  0  0
  1  2  1  0
  2  3  1  0
  3  4  1  0
  4  5  2  0
  5  6  1  0
  6  7  2  0
  7  8  1  0
  8  9  2  0
  9 10  1  0
 10 11  1  0
 11 12  1  0
 12 13  1  0
 12 14  1  0
 14 15  1  0
 15 16  1  0
 16 17  1  0
 17 18  1  0
 18 19  2  0
 18 20  1  0
 20 21  1  0
 21 22  1  0
 22 23  2  0
 23 24  1  0
 24 25  2  0
 25 26  1  0
 25 27  1  0
 27 28  2  0
 17 29  1  0
 29 30  1  0
 11 31  2  0
 31 32  1  0
 32 33  2  0
 33 34  1  0
 34 35  2  0
 35 36  1  0
 36 37  2  0
 37 38  1  0
 38 39  2  0
  9  4  1  0
 38 10  1  0
 30 14  1  0
 37 32  1  0
 28 22  1  0
M  END
$$$$
