
     RDKit          3D

 28 31  0  0  0  0  0  0  0  0999 V2000
  -18.9836   35.2343  -19.3410 N   0  0  0  0  0  0  0  0  0  0  0  0
  -19.0242   36.4732  -19.9893 C   0  0  0  0  0  0  0  0  0  0  0  0
  -18.4098   37.4029  -19.3121 O   0  0  0  0  0  0  0  0  0  0  0  0
  -19.6044   36.8712  -21.2213 C   0  0  0  0  0  0  0  0  0  0  0  0
  -20.3019   35.9148  -21.9716 C   0  0  0  0  0  0  0  0  0  0  0  0
  -20.8894   36.2276  -23.1731 C   0  0  0  0  0  0  0  0  0  0  0  0
  -21.5520   35.2985  -23.8753 F   0  0  0  0  0  0  0  0  0  0  0  0
  -20.8141   37.4981  -23.6868 C   0  0  0  0  0  0  0  0  0  0  0  0
  -20.1116   38.4663  -22.9337 C   0  0  0  0  0  0  0  0  0  0  0  0
  -19.5250   38.1433  -21.7285 C   0  0  0  0  0  0  0  0  0  0  0  0
  -18.8980   39.3469  -21.2291 C   0  0  0  0  0  0  0  0  0  0  0  0
  -18.2506   39.4923  -20.1546 O   0  0  0  0  0  0  0  0  0  0  0  0
  -19.1141   40.4274  -22.1627 N   0  0  0  0  0  0  0  0  0  0  0  0
  -18.6187   41.7782  -21.9712 C   0  0  0  0  0  0  0  0  0  0  0  0
  -18.7070   42.5820  -23.2268 C   0  0  0  0  0  0  0  0  0  0  0  0
  -17.9529   43.8828  -22.9820 C   0  0  0  0  0  0  0  0  0  0  0  0
  -18.1907   44.4784  -21.7292 N   0  0  0  0  0  0  0  0  0  0  0  0
  -17.0760   44.9526  -21.0033 C   0  0  0  0  0  0  0  0  0  0  0  0
  -16.7196   44.1005  -19.8076 C   0  0  0  0  0  0  0  0  0  0  0  0
  -15.8827   44.9586  -18.8915 C   0  0  0  0  0  0  0  0  0  0  0  0
  -14.6777   45.5448  -19.5606 C   0  0  0  0  0  0  0  0  0  0  0  0
  -13.5913   44.6698  -19.5411 F   0  0  0  0  0  0  0  0  0  0  0  0
  -14.2808   46.6429  -18.8038 F   0  0  0  0  0  0  0  0  0  0  0  0
  -14.8839   45.9936  -20.9556 C   0  0  0  0  0  0  0  0  0  0  0  0
  -15.7960   45.1135  -21.7791 C   0  0  0  0  0  0  0  0  0  0  0  0
  -19.2977   43.9842  -20.9845 C   0  0  0  0  0  0  0  0  0  0  0  0
  -19.3620   42.4901  -20.8685 C   0  0  0  0  0  0  0  0  0  0  0  0
  -19.8755   39.8929  -23.2417 C   0  0  0  0  0  0  0  0  0  0  0  0
  1  2  1  0
  2  3  2  0
  2  4  1  0
  4  5  2  0
  5  6  1  0
  6  7  1  0
  6  8  2  0
  8  9  1  0
  9 10  2  0
 10 11  1  0
 11 12  2  0
 11 13  1  0
 13 14  1  0
 14 15  1  0
 15 16  1  0
 16 17  1  0
 17 18  1  0
 18 19  1  0
 19 20  1  0
 20 21  1  0
 21 22  1  0
 21 23  1  0
 21 24  1  0
 24 25  1  0
 17 26  1  0
 26 27  1  0
 13 28  1  0
 10  4  1  0
 27 14  1  0
 28  9  1  0
 25 18  1  0
M  END
$$$$
