
     RDKit          3D

 31 35  0  0  0  0  0  0  0  0999 V2000
  -20.7393   34.2517  -23.3027 C   0  0  0  0  0  0  0  0  0  0  0  0
  -21.1805   35.6996  -23.4480 C   0  0  0  0  0  0  0  0  0  0  0  0
  -21.9754   35.7548  -24.7382 C   0  0  0  0  0  0  0  0  0  0  0  0
  -22.0561   35.9147  -22.4005 O   0  0  0  0  0  0  0  0  0  0  0  0
  -21.4476   36.8147  -21.5308 C   0  0  2  0  0  0  0  0  0  0  0  0
  -22.3618   38.0560  -21.5890 C   0  0  0  0  0  0  0  0  0  0  0  0
  -21.6673   38.8399  -22.6485 C   0  0  1  0  0  0  0  0  0  0  0  0
  -22.1155   40.2615  -22.8045 C   0  0  2  0  0  0  0  0  0  0  0  0
  -23.4504   40.2641  -23.4590 C   0  0  0  0  0  0  0  0  0  0  0  0
  -23.8345   41.4979  -24.1927 C   0  0  0  0  0  0  0  0  0  0  0  0
  -22.7538   42.4136  -24.5310 C   0  0  0  0  0  0  0  0  0  0  0  0
  -22.8119   43.1615  -25.6163 C   0  0  0  0  0  0  0  0  0  0  0  0
  -21.7158   44.0910  -25.9620 C   0  0  0  0  0  0  0  0  0  0  0  0
  -21.8682   45.0310  -26.7733 O   0  0  0  0  0  0  0  0  0  0  0  0
  -20.4073   43.8965  -25.3268 C   0  0  0  0  0  0  0  0  0  0  0  0
  -20.5836   43.4983  -23.8907 C   0  0  0  0  0  0  0  0  0  0  0  0
  -21.5798   42.4636  -23.5931 C   0  0  1  0  0  0  0  0  0  0  0  0
  -22.2054   42.8190  -22.2315 C   0  0  0  0  0  0  0  0  0  0  0  0
  -21.0849   41.0346  -23.5832 C   0  0  2  0  0  0  0  0  0  0  0  0
  -21.1550   40.5659  -24.9032 F   0  0  0  0  0  0  0  0  0  0  0  0
  -19.6892   40.8704  -23.1321 C   0  0  1  0  0  0  0  0  0  0  0  0
  -19.3544   41.5173  -21.9533 O   0  0  0  0  0  0  0  0  0  0  0  0
  -19.3312   39.4000  -23.1014 C   0  0  0  0  0  0  0  0  0  0  0  0
  -20.2476   38.7101  -22.1724 C   0  0  1  0  0  0  0  0  0  0  0  0
  -20.0768   39.2110  -20.7541 C   0  0  0  0  0  0  0  0  0  0  0  0
  -20.1345   37.2072  -22.1375 C   0  0  1  0  0  0  0  0  0  0  0  0
  -18.9337   36.7663  -21.3952 C   0  0  0  0  0  0  0  0  0  0  0  0
  -18.6247   37.2180  -20.2860 O   0  0  0  0  0  0  0  0  0  0  0  0
  -18.0059   35.7459  -21.9387 C   0  0  0  0  0  0  0  0  0  0  0  0
  -16.6308   35.4493  -20.8293 Cl  0  0  0  0  0  0  0  0  0  0  0  0
  -20.1633   36.6181  -23.3745 O   0  0  0  0  0  0  0  0  0  0  0  0
  1  2  1  0
  2  3  1  0
  2  4  1  0
  4  5  1  0
  5  6  1  6
  7  6  1  1
  7  8  1  0
  8  9  1  6
  9 10  1  0
 10 11  1  0
 11 12  2  0
 12 13  1  0
 13 14  2  0
 13 15  1  0
 15 16  1  0
 16 17  1  0
 17 18  1  1
 17 19  1  0
 19 20  1  6
 19 21  1  0
 21 22  1  1
 21 23  1  0
 23 24  1  0
 24 25  1  1
 24 26  1  0
 26 27  1  1
 27 28  2  0
 27 29  1  0
 29 30  1  0
 26 31  1  0
 31  2  1  0
 26  5  1  0
 24  7  1  0
 19  8  1  0
 17 11  1  0
M  END
$$$$
