
     RDKit          3D

 26 28  0  0  0  0  0  0  0  0999 V2000
  -13.2052   44.6326  -17.4214 N   0  0  0  0  0  0  0  0  0  0  0  0
  -14.1882   44.8520  -18.4129 C   0  0  0  0  0  0  0  0  0  0  0  0
  -14.1939   45.9564  -19.1931 N   0  0  0  0  0  0  0  0  0  0  0  0
  -15.1615   46.0853  -20.1081 C   0  0  0  0  0  0  0  0  0  0  0  0
  -16.1167   45.1517  -20.2662 N   0  0  0  0  0  0  0  0  0  0  0  0
  -16.1490   44.0295  -19.5057 C   0  0  0  0  0  0  0  0  0  0  0  0
  -15.1666   43.8901  -18.5711 C   0  0  0  0  0  0  0  0  0  0  0  0
  -15.4146   42.7038  -17.9490 N   0  0  0  0  0  0  0  0  0  0  0  0
  -16.5129   42.1427  -18.4908 C   0  0  0  0  0  0  0  0  0  0  0  0
  -16.9707   42.9623  -19.4565 N   0  0  0  0  0  0  0  0  0  0  0  0
  -18.1374   42.7321  -20.2906 C   0  0  2  0  0  0  0  0  0  0  0  0
  -18.8285   41.5934  -19.9675 O   0  0  0  0  0  0  0  0  0  0  0  0
  -19.1368   40.9117  -21.1170 C   0  0  2  0  0  0  0  0  0  0  0  0
  -19.3429   39.4286  -20.9059 C   0  0  0  0  0  0  0  0  0  0  0  0
  -21.1171   39.1270  -20.7823 S   0  0  0  0  0  0  0  0  0  0  0  0
  -21.5618   37.5063  -21.4658 C   0  0  0  0  0  0  0  0  0  0  0  0
  -20.3286   36.6769  -21.6532 C   0  0  0  0  0  0  0  0  0  0  0  0
  -20.5624   35.2858  -22.1424 C   0  0  2  0  0  0  0  0  0  0  0  0
  -21.3274   34.5962  -21.1138 N   0  0  0  0  0  0  0  0  0  0  0  0
  -19.3487   34.5174  -22.4242 C   0  0  0  0  0  0  0  0  0  0  0  0
  -18.2701   35.1326  -22.6462 O   0  0  0  0  0  0  0  0  0  0  0  0
  -19.3099   33.1185  -22.4624 O   0  0  0  0  0  0  0  0  0  0  0  0
  -17.9576   41.1871  -22.0363 C   0  0  1  0  0  0  0  0  0  0  0  0
  -18.2880   40.9660  -23.3710 O   0  0  0  0  0  0  0  0  0  0  0  0
  -17.7381   42.6584  -21.7469 C   0  0  1  0  0  0  0  0  0  0  0  0
  -18.6292   43.4177  -22.4748 O   0  0  0  0  0  0  0  0  0  0  0  0
  1  2  1  0
  2  3  2  0
  3  4  1  0
  4  5  2  0
  5  6  1  0
  6  7  2  0
  7  8  1  0
  8  9  2  0
  9 10  1  0
 11 10  1  1
 11 12  1  0
 12 13  1  0
 13 14  1  1
 14 15  1  0
 15 16  1  0
 16 17  1  0
 17 18  1  0
 18 19  1  1
 18 20  1  0
 20 21  2  0
 20 22  1  0
 13 23  1  0
 23 24  1  6
 23 25  1  0
 25 26  1  6
  7  2  1  0
 25 11  1  0
 10  6  1  0
M  END
$$$$
