
     RDKit          3D

 20 22  0  0  0  0  0  0  0  0999 V2000
  -10.5788   -2.2047  -42.8565 C   0  0  0  0  0  0  0  0  0  0  0  0
  -10.2715   -1.1828  -43.9026 C   0  0  0  0  0  0  0  0  0  0  0  0
  -11.3536   -1.1336  -44.9670 C   0  0  0  0  0  0  0  0  0  0  0  0
  -10.8459    0.0004  -46.2706 S   0  0  0  0  0  0  0  0  0  0  0  0
  -10.4099    1.5859  -45.5270 C   0  0  0  0  0  0  0  0  0  0  0  0
  -10.9963    1.9853  -44.4144 N   0  0  0  0  0  0  0  0  0  0  0  0
  -10.6721    3.1872  -43.8423 C   0  0  0  0  0  0  0  0  0  0  0  0
   -9.7228    3.9155  -44.4955 C   0  0  0  0  0  0  0  0  0  0  0  0
   -9.1134    3.4971  -45.6549 C   0  0  0  0  0  0  0  0  0  0  0  0
   -8.2453    4.2101  -46.2137 O   0  0  0  0  0  0  0  0  0  0  0  0
   -9.4596    2.3121  -46.1840 N   0  0  0  0  0  0  0  0  0  0  0  0
   -8.8753    1.8253  -47.3671 C   0  0  0  0  0  0  0  0  0  0  0  0
   -9.2675    2.2906  -48.5974 C   0  0  0  0  0  0  0  0  0  0  0  0
   -8.6896    1.8092  -49.7687 C   0  0  0  0  0  0  0  0  0  0  0  0
   -7.7107    0.8528  -49.6932 C   0  0  0  0  0  0  0  0  0  0  0  0
   -7.3182    0.3864  -48.4524 C   0  0  0  0  0  0  0  0  0  0  0  0
   -7.8972    0.8706  -47.3065 C   0  0  0  0  0  0  0  0  0  0  0  0
   -9.5055    5.4140  -43.5041 S   0  0  0  0  0  0  0  0  0  0  0  0
  -10.2747    4.7061  -41.9835 C   0  0  0  0  0  0  0  0  0  0  0  0
  -11.2368    3.7592  -42.6349 C   0  0  0  0  0  0  0  0  0  0  0  0
  1  2  1  0
  2  3  1  0
  3  4  1  0
  4  5  1  0
  5  6  2  0
  6  7  1  0
  7  8  2  0
  8  9  1  0
  9 10  2  0
  9 11  1  0
 11 12  1  0
 12 13  2  0
 13 14  1  0
 14 15  2  0
 15 16  1  0
 16 17  2  0
  8 18  1  0
 18 19  1  0
 19 20  1  0
 11  5  1  0
 17 12  1  0
 20  7  1  0
M  END
$$$$
