
     RDKit          3D

 29 32  0  0  0  0  0  0  0  0999 V2000
  -20.4105   40.4841  -18.6605 C   0  0  0  0  0  0  0  0  0  0  0  0
  -20.5577   40.6112  -20.0570 O   0  0  0  0  0  0  0  0  0  0  0  0
  -19.7736   39.8656  -20.8907 C   0  0  0  0  0  0  0  0  0  0  0  0
  -20.3150   38.7709  -21.5213 C   0  0  0  0  0  0  0  0  0  0  0  0
  -19.5874   37.9778  -22.3708 C   0  0  0  0  0  0  0  0  0  0  0  0
  -18.2670   38.2847  -22.6037 C   0  0  0  0  0  0  0  0  0  0  0  0
  -17.7154   39.3761  -21.9792 C   0  0  0  0  0  0  0  0  0  0  0  0
  -18.4666   40.1912  -21.1050 C   0  0  0  0  0  0  0  0  0  0  0  0
  -17.7991   41.3165  -20.4956 C   0  0  0  0  0  0  0  0  0  0  0  0
  -17.8721   41.4281  -19.2148 O   0  0  0  0  0  0  0  0  0  0  0  0
  -17.0610   42.3365  -21.1085 N   0  0  0  0  0  0  0  0  0  0  0  0
  -16.4545   43.4154  -20.4114 C   0  0  0  0  0  0  0  0  0  0  0  0
  -15.5206   43.1453  -19.4343 C   0  0  0  0  0  0  0  0  0  0  0  0
  -14.9035   44.1728  -18.7140 C   0  0  0  0  0  0  0  0  0  0  0  0
  -15.2291   45.4855  -18.9794 C   0  0  0  0  0  0  0  0  0  0  0  0
  -16.1599   45.7487  -19.9534 C   0  0  0  0  0  0  0  0  0  0  0  0
  -16.7754   44.7197  -20.6718 C   0  0  0  0  0  0  0  0  0  0  0  0
  -17.7414   44.9973  -21.6700 N   0  0  0  0  0  0  0  0  0  0  0  0
  -17.4887   45.6516  -22.9310 C   0  0  0  0  0  0  0  0  0  0  0  0
  -18.6642   46.5834  -23.2565 C   0  0  0  0  0  0  0  0  0  0  0  0
  -19.9385   45.7706  -23.4317 C   0  0  0  0  0  0  0  0  0  0  0  0
  -19.7769   44.4101  -22.7999 C   0  0  0  0  0  0  0  0  0  0  0  0
  -19.1427   44.6023  -21.4416 C   0  0  0  0  0  0  0  0  0  0  0  0
  -14.4836   46.2267  -18.1404 N   0  0  0  0  0  0  0  0  0  0  0  0
  -14.5366   47.6729  -18.1073 C   0  0  0  0  0  0  0  0  0  0  0  0
  -13.7404   45.3924  -17.4011 C   0  0  0  0  0  0  0  0  0  0  0  0
  -12.9143   45.7375  -16.5008 O   0  0  0  0  0  0  0  0  0  0  0  0
  -13.9781   44.1142  -17.7330 N   0  0  0  0  0  0  0  0  0  0  0  0
  -13.3866   42.8972  -17.1789 C   0  0  0  0  0  0  0  0  0  0  0  0
  1  2  1  0
  2  3  1  0
  3  4  2  0
  4  5  1  0
  5  6  2  0
  6  7  1  0
  7  8  2  0
  8  9  1  0
  9 10  2  0
  9 11  1  0
 11 12  1  0
 12 13  2  0
 13 14  1  0
 14 15  2  0
 15 16  1  0
 16 17  2  0
 17 18  1  0
 18 19  1  0
 19 20  1  0
 20 21  1  0
 21 22  1  0
 22 23  1  0
 15 24  1  0
 24 25  1  0
 24 26  1  0
 26 27  2  0
 26 28  1  0
 28 29  1  0
  8  3  1  0
 17 12  1  0
 23 18  1  0
 28 14  1  0
M  END
$$$$
