
     RDKit          3D

 21 21  0  0  0  0  0  0  0  0999 V2000
  -34.3162   11.5863  -15.7717 C   0  0  0  0  0  0  0  0  0  0  0  0
  -33.7932   11.3485  -17.1646 C   0  0  0  0  0  0  0  0  0  0  0  0
  -33.9738   10.1350  -17.7934 C   0  0  0  0  0  0  0  0  0  0  0  0
  -33.4846    9.9472  -19.0668 C   0  0  0  0  0  0  0  0  0  0  0  0
  -33.6595    8.6458  -19.7837 C   0  0  0  0  0  0  0  0  0  0  0  0
  -32.8065   10.9459  -19.7534 C   0  0  0  0  0  0  0  0  0  0  0  0
  -32.6193   12.1646  -19.1351 C   0  0  0  0  0  0  0  0  0  0  0  0
  -31.9235   13.2651  -19.7749 C   0  0  0  0  0  0  0  0  0  0  0  0
  -30.9846   13.8378  -19.1365 O   0  0  0  0  0  0  0  0  0  0  0  0
  -32.2688   13.7000  -21.0726 N   0  0  0  0  0  0  0  0  0  0  0  0
  -31.7987   14.9000  -21.5443 O   0  0  0  0  0  0  0  0  0  0  0  0
  -31.1318   14.6012  -22.7313 C   0  0  0  0  0  0  0  0  0  0  0  0
  -29.7291   15.2001  -22.6051 C   0  0  0  0  0  0  0  0  0  0  0  0
  -29.2459   15.6841  -23.9399 C   0  0  0  0  0  0  0  0  0  0  0  0
  -27.8662   16.2362  -23.8203 C   0  0  0  0  0  0  0  0  0  0  0  0
  -27.2620   16.7201  -25.1137 C   0  0  0  0  0  0  0  0  0  0  0  0
  -26.2239   17.7246  -24.8089 C   0  0  0  0  0  0  0  0  0  0  0  0
  -26.5304   18.9108  -24.5778 O   0  0  0  0  0  0  0  0  0  0  0  0
  -24.8639   17.3410  -24.7776 N   0  0  0  0  0  0  0  0  0  0  0  0
  -23.8780   18.2208  -24.4270 O   0  0  0  0  0  0  0  0  0  0  0  0
  -33.1229   12.3376  -17.8417 C   0  0  0  0  0  0  0  0  0  0  0  0
  1  2  1  0
  2  3  2  0
  3  4  1  0
  4  5  1  0
  4  6  2  0
  6  7  1  0
  7  8  1  0
  8  9  2  0
  8 10  1  0
 10 11  1  0
 11 12  1  0
 12 13  1  0
 13 14  1  0
 14 15  1  0
 15 16  1  0
 16 17  1  0
 17 18  2  0
 17 19  1  0
 19 20  1  0
  7 21  2  0
 21  2  1  0
M  END
$$$$
