
     RDKit          3D

 51 53  0  0  0  0  0  0  0  0999 V2000
  -30.4761   16.7657  -19.2855 C   0  0  0  0  0  0  0  0  0  0  0  0
  -29.7828   16.5425  -20.6403 C   0  0  0  0  0  0  0  0  0  0  0  0
  -28.5977   15.6544  -20.4366 C   0  0  1  0  0  0  0  0  0  0  0  0
  -28.9160   14.3896  -19.9762 O   0  0  0  0  0  0  0  0  0  0  0  0
  -29.2514   13.1735  -20.3480 C   0  0  0  0  0  0  0  0  0  0  0  0
  -29.1660   12.2887  -19.4159 O   0  0  0  0  0  0  0  0  0  0  0  0
  -29.7084   12.6297  -21.6363 C   0  0  2  0  0  0  0  0  0  0  0  0
  -31.1152   13.0854  -21.8284 C   0  0  0  0  0  0  0  0  0  0  0  0
  -29.7397   11.0991  -21.7509 C   0  0  1  0  0  0  0  0  0  0  0  0
  -30.9889   10.6862  -21.4018 O   0  0  0  0  0  0  0  0  0  0  0  0
  -31.2753   10.3132  -20.1428 C   0  0  1  0  0  0  0  0  0  0  0  0
  -32.7382   10.7234  -19.9044 C   0  0  0  0  0  0  0  0  0  0  0  0
  -33.4723    9.7330  -19.0730 C   0  0  1  0  0  0  0  0  0  0  0  0
  -34.7334   10.4021  -18.5641 C   0  0  0  0  0  0  0  0  0  0  0  0
  -33.7803    8.5672  -19.7191 O   0  0  0  0  0  0  0  0  0  0  0  0
  -34.2480    8.6835  -21.0017 C   0  0  0  0  0  0  0  0  0  0  0  0
  -32.5496    9.3668  -17.9078 C   0  0  1  0  0  0  0  0  0  0  0  0
  -33.2319    8.5354  -17.0475 O   0  0  0  0  0  0  0  0  0  0  0  0
  -31.3615    8.6526  -18.5588 C   0  0  2  0  0  0  0  0  0  0  0  0
  -30.1354    9.0473  -17.7950 C   0  0  0  0  0  0  0  0  0  0  0  0
  -31.2769    8.9255  -19.9161 O   0  0  0  0  0  0  0  0  0  0  0  0
  -29.6949   10.8375  -23.2802 C   0  0  2  0  0  0  0  0  0  0  0  0
  -30.1540    9.4315  -23.4884 C   0  0  0  0  0  0  0  0  0  0  0  0
  -28.4060   11.2065  -23.9335 C   0  0  1  0  0  0  0  0  0  0  0  0
  -27.8393    9.9882  -24.3972 O   0  0  0  0  0  0  0  0  0  0  0  0
  -28.7338    8.9787  -24.5792 C   0  0  2  0  0  0  0  0  0  0  0  0
  -28.7433    8.0412  -23.5483 O   0  0  0  0  0  0  0  0  0  0  0  0
  -27.6235    7.2698  -23.4391 C   0  0  2  0  0  0  0  0  0  0  0  0
  -26.4988    7.9155  -22.6528 C   0  0  0  0  0  0  0  0  0  0  0  0
  -27.0825    6.7689  -24.7606 C   0  0  0  0  0  0  0  0  0  0  0  0
  -28.2943    6.7865  -25.7033 C   0  0  2  0  0  0  0  0  0  0  0  0
  -27.9852    6.1402  -26.9456 N   0  0  0  0  0  0  0  0  0  0  0  0
  -27.7459    4.7329  -26.8146 C   0  0  0  0  0  0  0  0  0  0  0  0
  -29.1440    6.2900  -27.8382 C   0  0  0  0  0  0  0  0  0  0  0  0
  -28.6133    8.2607  -25.8960 C   0  0  1  0  0  0  0  0  0  0  0  0
  -29.8012    8.3273  -26.6221 O   0  0  0  0  0  0  0  0  0  0  0  0
  -28.4610   12.1220  -25.0876 C   0  0  2  0  0  0  0  0  0  0  0  0
  -29.7732   12.9112  -25.2314 C   0  0  0  0  0  0  0  0  0  0  0  0
  -28.5954   11.2956  -26.2564 O   0  0  0  0  0  0  0  0  0  0  0  0
  -27.3546   13.0289  -25.4269 C   0  0  0  0  0  0  0  0  0  0  0  0
  -26.6495   13.7934  -24.3574 C   0  0  1  0  0  0  0  0  0  0  0  0
  -25.1407   13.5374  -24.5309 C   0  0  0  0  0  0  0  0  0  0  0  0
  -26.9354   15.2524  -24.3015 C   0  0  0  0  0  0  0  0  0  0  0  0
  -27.8431   15.5369  -25.1245 O   0  0  0  0  0  0  0  0  0  0  0  0
  -26.3809   16.3153  -23.5164 C   0  0  2  0  0  0  0  0  0  0  0  0
  -24.8471   16.4463  -23.6475 C   0  0  0  0  0  0  0  0  0  0  0  0
  -26.8149   16.6049  -22.0998 C   0  0  1  0  0  0  0  0  0  0  0  0
  -27.4835   17.8144  -21.9381 O   0  0  0  0  0  0  0  0  0  0  0  0
  -27.6505   15.5109  -21.5525 C   0  0  1  0  0  0  0  0  0  0  0  0
  -26.6812   14.5180  -21.0502 C   0  0  0  0  0  0  0  0  0  0  0  0
  -28.4553   15.3219  -22.6209 O   0  0  0  0  0  0  0  0  0  0  0  0
  1  2  1  0
  3  2  1  6
  3  4  1  0
  4  5  1  0
  5  6  2  0
  5  7  1  0
  7  8  1  1
  7  9  1  0
  9 10  1  6
 11 10  1  6
 11 12  1  0
 12 13  1  0
 13 14  1  1
 13 15  1  0
 15 16  1  0
 13 17  1  0
 17 18  1  1
 17 19  1  0
 19 20  1  1
 19 21  1  0
  9 22  1  0
 22 23  1  1
 22 24  1  0
 24 25  1  6
 26 25  1  1
 26 27  1  0
 27 28  1  0
 28 29  1  6
 28 30  1  0
 30 31  1  0
 31 32  1  6
 32 33  1  0
 32 34  1  0
 31 35  1  0
 35 36  1  1
 24 37  1  0
 37 38  1  1
 37 39  1  0
 37 40  1  0
 40 41  1  0
 41 42  1  6
 41 43  1  0
 43 44  2  0
 43 45  1  0
 45 46  1  1
 45 47  1  0
 47 48  1  6
 47 49  1  0
 49 50  1  1
 49 51  1  0
 49  3  1  0
 21 11  1  0
 35 26  1  0
M  END
$$$$
