
     RDKit          3D

 41 43  0  0  0  0  0  0  0  0999 V2000
  -14.7888   19.6204  -41.4478 C   0  0  0  0  0  0  0  0  0  0  0  0
  -15.4581   18.3493  -40.9356 C   0  0  0  0  0  0  0  0  0  0  0  0
  -15.8159   18.4733  -39.5758 O   0  0  0  0  0  0  0  0  0  0  0  0
  -16.5697   17.4609  -38.9768 C   0  0  0  0  0  0  0  0  0  0  0  0
  -16.5259   16.3487  -39.5386 O   0  0  0  0  0  0  0  0  0  0  0  0
  -17.3301   17.7185  -37.7971 N   0  0  0  0  0  0  0  0  0  0  0  0
  -18.7374   17.7764  -37.8880 C   0  0  0  0  0  0  0  0  0  0  0  0
  -19.4416   17.0658  -38.8292 C   0  0  0  0  0  0  0  0  0  0  0  0
  -20.8175   17.2156  -38.8925 C   0  0  0  0  0  0  0  0  0  0  0  0
  -21.4806   18.0538  -38.0376 C   0  0  0  0  0  0  0  0  0  0  0  0
  -22.9684   18.1925  -38.1370 C   0  0  0  0  0  0  0  0  0  0  0  0
  -23.3019   18.7254  -39.3617 F   0  0  0  0  0  0  0  0  0  0  0  0
  -23.3831   19.0011  -37.1017 F   0  0  0  0  0  0  0  0  0  0  0  0
  -23.4897   16.9314  -37.9541 F   0  0  0  0  0  0  0  0  0  0  0  0
  -20.7909   18.7744  -37.0841 C   0  0  0  0  0  0  0  0  0  0  0  0
  -19.4291   18.6300  -37.0152 C   0  0  0  0  0  0  0  0  0  0  0  0
  -18.7062   19.3911  -35.9626 C   0  0  1  0  0  0  0  0  0  0  0  0
  -19.5850   19.5450  -34.8265 N   0  0  0  0  0  0  0  0  0  0  0  0
  -20.5500   18.6182  -34.3488 C   0  0  0  0  0  0  0  0  0  0  0  0
  -20.5065   18.3812  -32.9017 C   0  0  0  0  0  0  0  0  0  0  0  0
  -21.3582   18.9811  -31.9872 C   0  0  0  0  0  0  0  0  0  0  0  0
  -21.2685   18.7582  -30.6232 C   0  0  0  0  0  0  0  0  0  0  0  0
  -22.2030   19.4223  -29.6766 C   0  0  0  0  0  0  0  0  0  0  0  0
  -23.3214   19.8492  -30.3819 F   0  0  0  0  0  0  0  0  0  0  0  0
  -22.5828   18.5660  -28.6607 F   0  0  0  0  0  0  0  0  0  0  0  0
  -21.5839   20.5233  -29.0966 F   0  0  0  0  0  0  0  0  0  0  0  0
  -20.3139   17.9162  -30.0962 C   0  0  0  0  0  0  0  0  0  0  0  0
  -19.4567   17.3082  -30.9754 C   0  0  0  0  0  0  0  0  0  0  0  0
  -18.4177   16.3922  -30.4040 C   0  0  0  0  0  0  0  0  0  0  0  0
  -18.8410   15.0925  -30.3833 F   0  0  0  0  0  0  0  0  0  0  0  0
  -17.2984   16.5044  -31.1969 F   0  0  0  0  0  0  0  0  0  0  0  0
  -18.1205   16.7826  -29.1096 F   0  0  0  0  0  0  0  0  0  0  0  0
  -19.5516   17.5338  -32.3255 C   0  0  0  0  0  0  0  0  0  0  0  0
  -19.4165   20.7626  -34.0629 C   0  0  0  0  0  0  0  0  0  0  0  0
  -18.6844   20.8375  -33.0713 O   0  0  0  0  0  0  0  0  0  0  0  0
  -20.0984   21.9394  -34.4305 O   0  0  0  0  0  0  0  0  0  0  0  0
  -19.4185   23.1266  -34.7534 C   0  0  0  0  0  0  0  0  0  0  0  0
  -17.3506   18.9231  -35.6305 C   0  0  0  0  0  0  0  0  0  0  0  0
  -16.6770   17.9591  -36.5225 C   0  0  1  0  0  0  0  0  0  0  0  0
  -16.1646   16.6999  -35.8641 C   0  0  0  0  0  0  0  0  0  0  0  0
  -15.2979   15.8431  -36.7023 C   0  0  0  0  0  0  0  0  0  0  0  0
  1  2  1  0
  2  3  1  0
  3  4  1  0
  4  5  2  0
  4  6  1  0
  6  7  1  0
  7  8  2  0
  8  9  1  0
  9 10  2  0
 10 11  1  0
 11 12  1  0
 11 13  1  0
 11 14  1  0
 10 15  1  0
 15 16  2  0
 16 17  1  0
 17 18  1  1
 18 19  1  0
 19 20  1  0
 20 21  2  0
 21 22  1  0
 22 23  1  0
 23 24  1  0
 23 25  1  0
 23 26  1  0
 22 27  2  0
 27 28  1  0
 28 29  1  0
 29 30  1  0
 29 31  1  0
 29 32  1  0
 28 33  2  0
 18 34  1  0
 34 35  2  0
 34 36  1  0
 36 37  1  0
 17 38  1  0
 38 39  1  0
 39 40  1  1
 40 41  1  0
 39  6  1  0
 16  7  1  0
 33 20  1  0
M  END
$$$$
