
     RDKit          3D

 31 35  0  0  0  0  0  0  0  0999 V2000
  -23.5818   47.4810  -27.3096 C   0  0  0  0  0  0  0  0  0  0  0  0
  -23.5174   46.2661  -26.5046 N   0  0  0  0  0  0  0  0  0  0  0  0
  -22.2766   45.7855  -26.0444 C   0  0  0  0  0  0  0  0  0  0  0  0
  -21.2499   46.4269  -26.4625 O   0  0  0  0  0  0  0  0  0  0  0  0
  -22.0765   44.6545  -25.1602 C   0  0  0  0  0  0  0  0  0  0  0  0
  -20.8858   43.9222  -25.2819 C   0  0  0  0  0  0  0  0  0  0  0  0
  -20.6352   42.8467  -24.4809 C   0  0  0  0  0  0  0  0  0  0  0  0
  -21.5420   42.4222  -23.5072 C   0  0  0  0  0  0  0  0  0  0  0  0
  -21.2347   41.2648  -22.6698 C   0  0  0  0  0  0  0  0  0  0  0  0
  -22.1923   40.4490  -22.1201 C   0  0  0  0  0  0  0  0  0  0  0  0
  -21.8858   39.3846  -21.3492 N   0  0  0  0  0  0  0  0  0  0  0  0
  -20.5568   39.1454  -21.1325 C   0  0  0  0  0  0  0  0  0  0  0  0
  -19.9419   38.1708  -20.4152 N   0  0  0  0  0  0  0  0  0  0  0  0
  -18.6172   38.3462  -20.4948 C   0  0  0  0  0  0  0  0  0  0  0  0
  -18.4078   39.4484  -21.2749 C   0  0  0  0  0  0  0  0  0  0  0  0
  -17.0902   40.0281  -21.6436 C   0  0  0  0  0  0  0  0  0  0  0  0
  -16.8776   41.3484  -20.9657 C   0  0  0  0  0  0  0  0  0  0  0  0
  -16.4861   41.4192  -19.6443 C   0  0  0  0  0  0  0  0  0  0  0  0
  -16.2973   42.6466  -19.0439 C   0  0  0  0  0  0  0  0  0  0  0  0
  -16.4854   43.8384  -19.7169 C   0  0  0  0  0  0  0  0  0  0  0  0
  -16.2998   45.0385  -19.1265 N   0  0  0  0  0  0  0  0  0  0  0  0
  -16.4823   46.2055  -19.7798 C   0  0  0  0  0  0  0  0  0  0  0  0
  -16.8765   46.2026  -21.1127 C   0  0  0  0  0  0  0  0  0  0  0  0
  -17.0606   44.9680  -21.6970 C   0  0  0  0  0  0  0  0  0  0  0  0
  -16.8764   43.7727  -21.0369 C   0  0  0  0  0  0  0  0  0  0  0  0
  -17.0636   42.5433  -21.6320 C   0  0  0  0  0  0  0  0  0  0  0  0
  -19.6047   39.9211  -21.6539 N   0  0  0  0  0  0  0  0  0  0  0  0
  -19.9541   40.9711  -22.4159 N   0  0  0  0  0  0  0  0  0  0  0  0
  -22.6945   43.1447  -23.4017 C   0  0  0  0  0  0  0  0  0  0  0  0
  -22.9828   44.2557  -24.2099 C   0  0  0  0  0  0  0  0  0  0  0  0
  -24.1562   44.9040  -24.0239 F   0  0  0  0  0  0  0  0  0  0  0  0
  1  2  1  0
  2  3  1  0
  3  4  2  0
  3  5  1  0
  5  6  2  0
  6  7  1  0
  7  8  2  0
  8  9  1  0
  9 10  1  0
 10 11  2  0
 11 12  1  0
 12 13  2  0
 13 14  1  0
 14 15  2  0
 15 16  1  0
 16 17  1  0
 17 18  2  0
 18 19  1  0
 19 20  2  0
 20 21  1  0
 21 22  2  0
 22 23  1  0
 23 24  2  0
 24 25  1  0
 25 26  2  0
 15 27  1  0
 27 28  1  0
  8 29  1  0
 29 30  2  0
 30 31  1  0
 30  5  1  0
 28  9  2  0
 27 12  1  0
 26 17  1  0
 25 20  1  0
M  END
$$$$
