
     RDKit          3D

 38 39  0  0  0  0  0  0  0  0999 V2000
  -25.9299   35.3239  -24.8300 C   0  0  0  0  0  0  0  0  0  0  0  0
  -25.8842   34.3273  -25.7558 O   0  0  0  0  0  0  0  0  0  0  0  0
  -24.9181   34.3832  -26.7168 C   0  0  0  0  0  0  0  0  0  0  0  0
  -23.5672   34.3103  -26.1081 C   0  0  0  0  0  0  0  0  0  0  0  0
  -23.4570   34.1763  -24.8956 O   0  0  0  0  0  0  0  0  0  0  0  0
  -22.4180   34.3837  -26.8189 O   0  0  0  0  0  0  0  0  0  0  0  0
  -21.0723   34.3507  -26.4160 C   0  0  2  0  0  0  0  0  0  0  0  0
  -20.5711   35.4217  -25.5722 C   0  0  0  0  0  0  0  0  0  0  0  0
  -21.0504   35.8047  -24.2684 C   0  0  0  0  0  0  0  0  0  0  0  0
  -20.2151   36.9053  -23.7622 N   0  0  0  0  0  0  0  0  0  0  0  0
  -18.8947   36.5957  -23.4433 C   0  0  0  0  0  0  0  0  0  0  0  0
  -20.9167   37.9037  -23.0653 C   0  0  0  0  0  0  0  0  0  0  0  0
  -20.0557   39.0100  -22.5593 C   0  0  0  0  0  0  0  0  0  0  0  0
  -19.3261   39.7092  -23.6923 C   0  0  0  0  0  0  0  0  0  0  0  0
  -18.4793   40.7922  -23.1566 C   0  0  0  0  0  0  0  0  0  0  0  0
  -18.8777   42.0577  -22.9826 N   0  0  0  0  0  0  0  0  0  0  0  0
  -17.8526   42.7931  -22.4728 C   0  0  0  0  0  0  0  0  0  0  0  0
  -17.7071   44.1064  -22.1101 C   0  0  0  0  0  0  0  0  0  0  0  0
  -16.5313   44.6199  -21.6042 C   0  0  0  0  0  0  0  0  0  0  0  0
  -15.4576   43.7663  -21.4597 C   0  0  0  0  0  0  0  0  0  0  0  0
  -15.6016   42.4322  -21.8269 C   0  0  0  0  0  0  0  0  0  0  0  0
  -16.7853   41.9388  -22.3306 C   0  0  0  0  0  0  0  0  0  0  0  0
  -17.2018   40.7394  -22.7538 N   0  0  0  0  0  0  0  0  0  0  0  0
  -20.4503   34.7648  -27.8078 C   0  0  0  0  0  0  0  0  0  0  0  0
  -20.7411   33.7927  -28.8769 C   0  0  0  0  0  0  0  0  0  0  0  0
  -21.5494   32.6095  -28.4446 C   0  0  0  0  0  0  0  0  0  0  0  0
  -22.3590   31.9974  -29.3469 C   0  0  0  0  0  0  0  0  0  0  0  0
  -23.1129   30.9101  -28.9216 C   0  0  0  0  0  0  0  0  0  0  0  0
  -23.9139   30.3116  -29.8316 F   0  0  0  0  0  0  0  0  0  0  0  0
  -23.0486   30.4575  -27.6228 C   0  0  0  0  0  0  0  0  0  0  0  0
  -22.2149   31.0978  -26.7182 C   0  0  0  0  0  0  0  0  0  0  0  0
  -21.4849   32.1553  -27.1443 C   0  0  0  0  0  0  0  0  0  0  0  0
  -20.5335   32.9638  -26.2878 C   0  0  2  0  0  0  0  0  0  0  0  0
  -20.2874   32.2979  -25.0184 C   0  0  0  0  0  0  0  0  0  0  0  0
  -19.7377   30.8912  -25.3726 C   0  0  0  0  0  0  0  0  0  0  0  0
  -19.2073   32.8922  -24.1351 C   0  0  0  0  0  0  0  0  0  0  0  0
  -20.2881   36.7038  -24.9112 Cl  0  0  0  0  0  0  0  0  0  0  0  0
  -20.2881   36.7040  -24.9112 Cl  0  0  0  0  0  0  0  0  0  0  0  0
  1  2  1  0
  2  3  1  0
  3  4  1  0
  4  5  2  0
  4  6  1  0
  6  7  1  0
  7  8  1  1
  8  9  1  0
  9 10  1  0
 10 11  1  0
 10 12  1  0
 12 13  1  0
 13 14  1  0
 14 15  1  0
 15 16  2  0
 16 17  1  0
 17 18  2  0
 18 19  1  0
 19 20  2  0
 20 21  1  0
 21 22  2  0
 22 23  1  0
  7 24  1  0
 24 25  1  0
 25 26  1  0
 26 27  2  0
 27 28  1  0
 28 29  1  0
 28 30  2  0
 30 31  1  0
 31 32  2  0
 32 33  1  0
 33 34  1  1
 34 35  1  0
 34 36  1  0
 33  7  1  0
 23 15  1  0
 32 26  1  0
 22 17  1  0
M  END
$$$$
