
     RDKit          3D

 30 33  0  0  0  0  0  0  0  0999 V2000
  -19.6460   43.7783  -24.3648 N   0  0  0  0  0  0  0  0  0  0  0  0
  -19.0151   43.0982  -23.2848 C   0  0  0  0  0  0  0  0  0  0  0  0
  -17.8531   43.5626  -22.7913 N   0  0  0  0  0  0  0  0  0  0  0  0
  -17.2774   42.9060  -21.7707 C   0  0  0  0  0  0  0  0  0  0  0  0
  -15.7335   43.4231  -21.0417 S   0  0  0  0  0  0  0  0  0  0  0  0
  -15.8310   43.1469  -19.2432 C   0  0  0  0  0  0  0  0  0  0  0  0
  -15.1946   44.3251  -18.6072 C   0  0  0  0  0  0  0  0  0  0  0  0
  -13.8683   44.2473  -18.2550 C   0  0  0  0  0  0  0  0  0  0  0  0
  -13.2025   45.2925  -17.6658 C   0  0  0  0  0  0  0  0  0  0  0  0
  -13.8872   46.4703  -17.4152 C   0  0  0  0  0  0  0  0  0  0  0  0
  -13.2249   47.5791  -16.8017 N   0  0  0  0  0  4  0  0  0  0  0  0
  -13.8445   48.6270  -16.5733 O   0  0  0  0  0  0  0  0  0  0  0  0
  -11.9005   47.5107  -16.4542 O   0  0  0  0  0  1  0  0  0  0  0  0
  -15.2116   46.5559  -17.7641 C   0  0  0  0  0  0  0  0  0  0  0  0
  -15.8808   45.4931  -18.3608 C   0  0  0  0  0  0  0  0  0  0  0  0
  -17.8838   41.7635  -21.2406 C   0  0  0  0  0  0  0  0  0  0  0  0
  -17.5227   40.9381  -20.2379 N   0  0  0  0  0  0  0  0  0  0  0  0
  -18.4554   39.9713  -20.1154 C   0  0  0  0  0  0  0  0  0  0  0  0
  -19.3925   40.2081  -21.0497 N   0  0  0  0  0  0  0  0  0  0  0  0
  -20.5549   39.3889  -21.2434 C   0  0  0  0  0  0  0  0  0  0  0  0
  -20.5807   38.3178  -20.3931 O   0  0  0  0  0  0  0  0  0  0  0  0
  -20.5029   37.1417  -21.0818 C   0  0  0  0  0  0  0  0  0  0  0  0
  -19.1140   36.5730  -21.2215 C   0  0  0  0  0  0  0  0  0  0  0  0
  -18.5087   36.4021  -20.0005 O   0  0  0  0  0  0  0  0  0  0  0  0
  -21.1259   37.4365  -22.4102 C   0  0  0  0  0  0  0  0  0  0  0  0
  -20.6753   36.5749  -23.4100 O   0  0  0  0  0  0  0  0  0  0  0  0
  -20.6608   38.8585  -22.6563 C   0  0  0  0  0  0  0  0  0  0  0  0
  -21.7128   39.4997  -23.3397 O   0  0  0  0  0  0  0  0  0  0  0  0
  -19.0769   41.2993  -21.7590 C   0  0  0  0  0  0  0  0  0  0  0  0
  -19.6209   41.9860  -22.7813 N   0  0  0  0  0  0  0  0  0  0  0  0
  1  2  1  0
  2  3  2  0
  3  4  1  0
  4  5  1  0
  5  6  1  0
  6  7  1  0
  7  8  2  0
  8  9  1  0
  9 10  2  0
 10 11  1  0
 11 12  2  0
 11 13  1  0
 10 14  1  0
 14 15  2  0
  4 16  2  0
 16 17  1  0
 17 18  2  0
 18 19  1  0
 19 20  1  0
 20 21  1  0
 21 22  1  0
 22 23  1  0
 23 24  1  0
 22 25  1  0
 25 26  1  0
 25 27  1  0
 27 28  1  0
 19 29  1  0
 29 30  2  0
 30  2  1  0
 15  7  1  0
 29 16  1  0
 27 20  1  0
M  CHG  2  11   1  13  -1
M  END
$$$$
