
     RDKit          3D

 12 12  0  0  0  0  0  0  0  0999 V2000
  -15.3097   45.0420  -19.6420 N   0  0  0  0  0  0  0  0  0  0  0  0
  -16.2374   43.9952  -19.4351 C   0  0  0  0  0  0  0  0  0  0  0  0
  -16.4167   43.0026  -20.4045 C   0  0  0  0  0  0  0  0  0  0  0  0
  -17.3302   41.9950  -20.1713 C   0  0  0  0  0  0  0  0  0  0  0  0
  -18.0733   41.9457  -18.9977 C   0  0  0  0  0  0  0  0  0  0  0  0
  -19.2084   40.6396  -18.7768 S   0  0  0  0  0  6  0  0  0  0  0  0
  -20.8075   41.1859  -19.0389 N   0  0  0  0  0  0  0  0  0  0  0  0
  -18.9361   39.4948  -19.7244 O   0  0  0  0  0  0  0  0  0  0  0  0
  -19.0262   40.0779  -17.3755 O   0  0  0  0  0  0  0  0  0  0  0  0
  -17.9042   42.9228  -18.0310 C   0  0  0  0  0  0  0  0  0  0  0  0
  -16.9832   43.9360  -18.2695 C   0  0  0  0  0  0  0  0  0  0  0  0
  -16.7926   44.9135  -17.3383 F   0  0  0  0  0  0  0  0  0  0  0  0
  1  2  1  0
  2  3  2  0
  3  4  1  0
  4  5  2  0
  5  6  1  0
  6  7  1  0
  6  8  2  0
  6  9  2  0
  5 10  1  0
 10 11  2  0
 11 12  1  0
 11  2  1  0
M  END
$$$$
