
     RDKit          3D

 24 26  0  0  0  0  0  0  0  0999 V2000
  -15.5957   42.1505  -20.0736 O   0  0  0  0  0  0  0  0  0  0  0  0
  -16.6823   42.7673  -20.2164 C   0  0  0  0  0  0  0  0  0  0  0  0
  -16.6174   44.1702  -20.2320 N   0  0  0  0  0  0  0  0  0  0  0  0
  -15.4054   44.9341  -20.3105 C   0  0  0  0  0  0  0  0  0  0  0  0
  -14.2470   44.3684  -19.8351 C   0  0  0  0  0  0  0  0  0  0  0  0
  -13.0492   45.0337  -19.8747 C   0  0  0  0  0  0  0  0  0  0  0  0
  -13.0139   46.3020  -20.4062 C   0  0  0  0  0  0  0  0  0  0  0  0
  -14.1938   46.8794  -20.8909 C   0  0  0  0  0  0  0  0  0  0  0  0
  -15.3840   46.1893  -20.8393 C   0  0  0  0  0  0  0  0  0  0  0  0
  -16.5684   46.7870  -21.3335 N   0  0  0  0  0  0  0  0  0  0  0  0
  -17.7901   46.0095  -21.3764 C   0  0  0  0  0  0  0  0  0  0  0  0
  -19.0063   46.7956  -21.0008 C   0  0  0  0  0  0  0  0  0  0  0  0
  -18.6274   48.1066  -20.3661 C   0  0  0  0  0  0  0  0  0  0  0  0
  -17.7472   48.9406  -21.2673 C   0  0  0  0  0  0  0  0  0  0  0  0
  -16.5686   48.1596  -21.7931 C   0  0  0  0  0  0  0  0  0  0  0  0
  -17.9040   41.9999  -20.3525 C   0  0  0  0  0  0  0  0  0  0  0  0
  -19.1076   42.6579  -20.4621 C   0  0  0  0  0  0  0  0  0  0  0  0
  -20.2918   41.9821  -20.5929 C   0  0  0  0  0  0  0  0  0  0  0  0
  -20.2931   40.6132  -20.6169 C   0  0  0  0  0  0  0  0  0  0  0  0
  -19.1041   39.9222  -20.5094 C   0  0  0  0  0  0  0  0  0  0  0  0
  -19.0970   38.4958  -20.5335 N   0  0  0  0  0  4  0  0  0  0  0  0
  -18.0144   37.8858  -20.4312 O   0  0  0  0  0  0  0  0  0  0  0  0
  -20.2478   37.7980  -20.6657 O   0  0  0  0  0  1  0  0  0  0  0  0
  -17.9285   40.6256  -20.3789 C   0  0  0  0  0  0  0  0  0  0  0  0
  1  2  2  0
  2  3  1  0
  3  4  1  0
  4  5  2  0
  5  6  1  0
  6  7  2  0
  7  8  1  0
  8  9  2  0
  9 10  1  0
 10 11  1  0
 11 12  1  0
 12 13  1  0
 13 14  1  0
 14 15  1  0
  2 16  1  0
 16 17  2  0
 17 18  1  0
 18 19  2  0
 19 20  1  0
 20 21  1  0
 21 22  2  0
 21 23  1  0
 20 24  2  0
  9  4  1  0
 15 10  1  0
 24 16  1  0
M  CHG  2  21   1  23  -1
M  END
$$$$
