
     RDKit          3D

 29 33  0  0  0  0  0  0  0  0999 V2000
  -18.8188   34.6368  -22.1414 C   0  0  0  0  0  0  0  0  0  0  0  0
  -20.2763   34.8827  -22.2447 C   0  0  0  0  0  0  0  0  0  0  0  0
  -21.0388   34.1985  -21.5121 O   0  0  0  0  0  0  0  0  0  0  0  0
  -20.8212   35.8249  -23.1061 O   0  0  0  0  0  0  0  0  0  0  0  0
  -20.6187   37.1764  -22.8358 C   0  0  1  0  0  0  0  0  0  0  0  0
  -21.3753   37.6922  -21.6602 C   0  0  0  0  0  0  0  0  0  0  0  0
  -21.2732   39.2168  -21.6639 C   0  0  0  0  0  0  0  0  0  0  0  0
  -19.8452   39.6656  -21.5068 C   0  0  1  0  0  0  0  0  0  0  0  0
  -19.3617   39.2840  -20.1075 C   0  0  0  0  0  0  0  0  0  0  0  0
  -19.0568   38.9720  -22.5599 C   0  0  0  0  0  0  0  0  0  0  0  0
  -18.3070   39.5895  -23.4492 C   0  0  0  0  0  0  0  0  0  0  0  0
  -18.1759   41.0658  -23.4855 C   0  0  0  0  0  0  0  0  0  0  0  0
  -18.3792   41.5705  -22.0835 C   0  0  1  0  0  0  0  0  0  0  0  0
  -18.3528   43.0518  -22.0539 C   0  0  2  0  0  0  0  0  0  0  0  0
  -17.1541   43.7678  -22.4649 C   0  0  0  0  0  0  0  0  0  0  0  0
  -17.3450   45.0760  -21.7887 C   0  0  0  0  0  0  0  0  0  0  0  0
  -18.1180   44.9419  -20.7239 C   0  0  0  0  0  0  0  0  0  0  0  0
  -18.4533   46.0951  -19.8793 C   0  0  0  0  0  0  0  0  0  0  0  0
  -19.6108   46.1204  -19.1093 C   0  0  0  0  0  0  0  0  0  0  0  0
  -19.9481   47.2187  -18.3594 C   0  0  0  0  0  0  0  0  0  0  0  0
  -19.1211   48.3089  -18.3755 C   0  0  0  0  0  0  0  0  0  0  0  0
  -18.0028   48.3388  -19.0939 N   0  0  0  0  0  0  0  0  0  0  0  0
  -17.6914   47.2343  -19.8308 C   0  0  0  0  0  0  0  0  0  0  0  0
  -18.5627   43.5572  -20.6134 C   0  0  2  0  0  0  0  0  0  0  0  0
  -17.6758   42.8710  -19.6269 C   0  0  0  0  0  0  0  0  0  0  0  0
  -20.0349   43.3284  -20.4166 C   0  0  0  0  0  0  0  0  0  0  0  0
  -20.2686   41.8267  -20.4230 C   0  0  0  0  0  0  0  0  0  0  0  0
  -19.8010   41.1673  -21.6733 C   0  0  2  0  0  0  0  0  0  0  0  0
  -19.1331   37.4902  -22.6063 C   0  0  0  0  0  0  0  0  0  0  0  0
  1  2  1  0
  2  3  2  0
  2  4  1  0
  5  4  1  1
  5  6  1  0
  6  7  1  0
  7  8  1  0
  8  9  1  1
  8 10  1  0
 10 11  2  0
 11 12  1  0
 13 12  1  6
 13 14  1  0
 14 15  1  1
 15 16  1  0
 16 17  2  0
 17 18  1  0
 18 19  2  0
 19 20  1  0
 20 21  2  0
 21 22  1  0
 22 23  2  0
 17 24  1  0
 24 25  1  1
 24 26  1  0
 26 27  1  0
 28 27  1  1
 10 29  1  0
 29  5  1  0
 28  8  1  0
 28 13  1  0
 24 14  1  0
 23 18  1  0
M  END
$$$$
