
     RDKit          3D

 31 34  0  0  0  0  0  0  0  0999 V2000
  -25.8489   17.5577  -20.5186 C   0  0  0  0  0  0  0  0  0  0  0  0
  -26.9093   16.5371  -20.7254 C   0  0  0  0  0  0  0  0  0  0  0  0
  -26.5798   15.2130  -20.9667 C   0  0  0  0  0  0  0  0  0  0  0  0
  -27.5262   14.2390  -21.1621 C   0  0  0  0  0  0  0  0  0  0  0  0
  -27.0809   12.9108  -21.4028 N   0  0  0  0  0  0  0  0  0  0  0  0
  -25.8737   12.5697  -22.0535 C   0  0  0  0  0  0  0  0  0  0  0  0
  -24.8056   12.8015  -21.4101 O   0  0  0  0  0  0  0  0  0  0  0  0
  -25.8765   11.9999  -23.3560 N   0  0  0  0  0  0  0  0  0  0  0  0
  -26.4618   10.6920  -23.5800 C   0  0  0  0  0  0  0  0  0  0  0  0
  -25.8007    9.8986  -24.6396 C   0  0  0  0  0  0  0  0  0  0  0  0
  -26.2972    8.5954  -24.8661 N   0  0  0  0  0  0  0  0  0  0  0  0
  -25.5949    7.8116  -25.8112 C   0  0  0  0  0  0  0  0  0  0  0  0
  -26.4207    7.2952  -26.9364 C   0  0  0  0  0  0  0  0  0  0  0  0
  -27.5698    8.2052  -27.3005 C   0  0  0  0  0  0  0  0  0  0  0  0
  -27.0185    9.3750  -27.8241 O   0  0  0  0  0  0  0  0  0  0  0  0
  -28.4417    7.6084  -28.3759 C   0  0  0  0  0  0  0  0  0  0  0  0
  -29.1251    6.3746  -27.9171 C   0  0  0  0  0  0  0  0  0  0  0  0
  -30.2828    6.5052  -27.1686 C   0  0  0  0  0  0  0  0  0  0  0  0
  -30.9670    5.4070  -26.7107 C   0  0  0  0  0  0  0  0  0  0  0  0
  -30.4996    4.1399  -26.9970 C   0  0  0  0  0  0  0  0  0  0  0  0
  -29.3323    3.9826  -27.7513 C   0  0  0  0  0  0  0  0  0  0  0  0
  -28.6674    5.1052  -28.1969 C   0  0  0  0  0  0  0  0  0  0  0  0
  -28.4144    8.5635  -26.1104 C   0  0  0  0  0  0  0  0  0  0  0  0
  -27.6984    8.4068  -24.8076 C   0  0  0  0  0  0  0  0  0  0  0  0
  -28.8448   14.5617  -21.1221 C   0  0  0  0  0  0  0  0  0  0  0  0
  -29.7868   13.5900  -21.3172 C   0  0  0  0  0  0  0  0  0  0  0  0
  -31.1248   13.9123  -21.2777 C   0  0  0  0  0  0  0  0  0  0  0  0
  -31.4743   15.2220  -21.0394 C   0  0  0  0  0  0  0  0  0  0  0  0
  -30.5269   16.2148  -20.8404 C   0  0  0  0  0  0  0  0  0  0  0  0
  -29.1855   15.8964  -20.8791 C   0  0  0  0  0  0  0  0  0  0  0  0
  -28.2201   16.8374  -20.6895 N   0  0  0  0  0  0  0  0  0  0  0  0
  1  2  1  0
  2  3  2  0
  3  4  1  0
  4  5  1  0
  5  6  1  0
  6  7  2  0
  6  8  1  0
  8  9  1  0
  9 10  1  0
 10 11  1  0
 11 12  1  0
 12 13  1  0
 13 14  1  0
 14 15  1  0
 14 16  1  0
 16 17  1  0
 17 18  2  0
 18 19  1  0
 19 20  2  0
 20 21  1  0
 21 22  2  0
 14 23  1  0
 23 24  1  0
  4 25  2  0
 25 26  1  0
 26 27  2  0
 27 28  1  0
 28 29  2  0
 29 30  1  0
 30 31  2  0
 31  2  1  0
 24 11  1  0
 30 25  1  0
 22 17  1  0
M  END
$$$$
