
     RDKit          3D

 33 35  0  0  0  0  0  0  0  0999 V2000
  -23.7122   20.3558  -43.1917 C   0  0  0  0  0  0  0  0  0  0  0  0
  -22.2220   20.3167  -43.2210 C   0  0  0  0  0  0  0  0  0  0  0  0
  -21.6897   21.3935  -42.5075 O   0  0  0  0  0  0  0  0  0  0  0  0
  -20.3389   21.6508  -42.4267 C   0  0  0  0  0  0  0  0  0  0  0  0
  -19.3851   20.6840  -42.3742 C   0  0  0  0  0  0  0  0  0  0  0  0
  -18.0366   20.9586  -42.2942 C   0  0  0  0  0  0  0  0  0  0  0  0
  -17.0747   19.8332  -42.2420 C   0  0  0  0  0  0  0  0  0  0  0  0
  -16.9794   19.2744  -40.8852 C   0  0  0  0  0  0  0  0  0  0  0  0
  -17.0160   20.0275  -39.8961 O   0  0  0  0  0  0  0  0  0  0  0  0
  -16.8448   17.8792  -40.6692 N   0  0  0  0  0  0  0  0  0  0  0  0
  -16.6004   17.3102  -39.3877 C   0  0  1  0  0  0  0  0  0  0  0  0
  -17.4216   16.0788  -39.1971 C   0  0  0  0  0  0  0  0  0  0  0  0
  -17.5250   15.5811  -37.7881 C   0  0  0  0  0  0  0  0  0  0  0  0
  -18.4661   14.3690  -37.7436 C   0  0  0  0  0  0  0  0  0  0  0  0
  -16.1346   15.0223  -37.4474 C   0  0  0  0  0  0  0  0  0  0  0  0
  -15.2357   17.2930  -38.8769 C   0  0  0  0  0  0  0  0  0  0  0  0
  -14.2235   16.6941  -39.6546 C   0  0  0  0  0  0  0  0  0  0  0  0
  -12.9156   16.5997  -39.3108 C   0  0  0  0  0  0  0  0  0  0  0  0
  -12.5399   17.1335  -38.0990 C   0  0  0  0  0  0  0  0  0  0  0  0
  -13.4454   17.7311  -37.2806 C   0  0  0  0  0  0  0  0  0  0  0  0
  -14.7995   17.8001  -37.6931 C   0  0  0  0  0  0  0  0  0  0  0  0
  -15.6034   18.4489  -36.7204 N   0  0  0  0  0  0  0  0  0  0  0  0
  -15.4124   19.8076  -36.3802 C   0  0  0  0  0  0  0  0  0  0  0  0
  -15.6077   20.0437  -34.9132 C   0  0  0  0  0  0  0  0  0  0  0  0
  -16.9784   19.5012  -34.5324 C   0  0  0  0  0  0  0  0  0  0  0  0
  -16.9273   17.9868  -34.7257 C   0  0  0  0  0  0  0  0  0  0  0  0
  -16.6690   17.6703  -36.1666 C   0  0  0  0  0  0  0  0  0  0  0  0
  -17.6346   22.2688  -42.2666 C   0  0  0  0  0  0  0  0  0  0  0  0
  -18.5796   23.2709  -42.3190 C   0  0  0  0  0  0  0  0  0  0  0  0
  -19.9173   22.9850  -42.3982 C   0  0  0  0  0  0  0  0  0  0  0  0
  -20.9319   24.0228  -42.4550 C   0  0  0  0  0  0  0  0  0  0  0  0
  -20.8407   24.9735  -41.6306 O   0  0  0  0  0  0  0  0  0  0  0  0
  -21.9767   24.0166  -43.3571 O   0  0  0  0  0  0  0  0  0  0  0  0
  1  2  1  0
  2  3  1  0
  3  4  1  0
  4  5  2  0
  5  6  1  0
  6  7  1  0
  7  8  1  0
  8  9  2  0
  8 10  1  0
 10 11  1  0
 11 12  1  6
 12 13  1  0
 13 14  1  0
 13 15  1  0
 11 16  1  0
 16 17  2  0
 17 18  1  0
 18 19  2  0
 19 20  1  0
 20 21  2  0
 21 22  1  0
 22 23  1  0
 23 24  1  0
 24 25  1  0
 25 26  1  0
 26 27  1  0
  6 28  2  0
 28 29  1  0
 29 30  2  0
 30 31  1  0
 31 32  2  0
 31 33  1  0
 30  4  1  0
 21 16  1  0
 27 22  1  0
M  END
$$$$
