
     RDKit          3D

 20 22  0  0  0  0  0  0  0  0999 V2000
  -17.7139   43.9944  -21.4006 O   0  0  0  0  0  0  0  0  0  0  0  0
  -17.0920   43.7725  -20.3182 C   0  0  0  0  0  0  0  0  0  0  0  0
  -17.1276   42.4768  -19.7484 N   0  0  0  0  0  0  0  0  0  0  0  0
  -17.7185   41.4091  -20.4892 C   0  0  0  0  0  0  0  0  0  0  0  0
  -17.8934   40.2101  -20.4012 N   0  0  0  0  0  0  0  0  0  0  0  0
  -18.4907   39.4294  -21.2541 C   0  0  0  0  0  0  0  0  0  0  0  0
  -18.7055   38.0307  -21.1717 C   0  0  0  0  0  0  0  0  0  0  0  0
  -18.2790   37.3123  -20.1188 F   0  0  0  0  0  0  0  0  0  0  0  0
  -19.3640   37.3782  -22.1843 C   0  0  0  0  0  0  0  0  0  0  0  0
  -19.8437   38.0049  -23.3056 C   0  0  0  0  0  0  0  0  0  0  0  0
  -20.4787   37.3565  -24.2754 F   0  0  0  0  0  0  0  0  0  0  0  0
  -19.6402   39.3810  -23.4014 C   0  0  0  0  0  0  0  0  0  0  0  0
  -18.9808   40.0310  -22.3861 C   0  0  0  0  0  0  0  0  0  0  0  0
  -18.5102   41.7587  -22.1014 S   0  0  0  0  0  0  0  0  0  0  0  0
  -16.3475   44.8457  -19.6691 C   0  0  0  0  0  0  0  0  0  0  0  0
  -15.2327   44.5378  -18.9186 C   0  0  0  0  0  0  0  0  0  0  0  0
  -14.4937   45.5411  -18.2814 C   0  0  0  0  0  0  0  0  0  0  0  0
  -14.8861   46.8567  -18.4057 C   0  0  0  0  0  0  0  0  0  0  0  0
  -16.0015   47.1241  -19.1613 C   0  0  0  0  0  0  0  0  0  0  0  0
  -16.7039   46.1272  -19.7720 N   0  0  0  0  0  0  0  0  0  0  0  0
  1  2  2  0
  2  3  1  0
  3  4  1  0
  4  5  2  0
  5  6  1  0
  6  7  2  0
  7  8  1  0
  7  9  1  0
  9 10  2  0
 10 11  1  0
 10 12  1  0
 12 13  2  0
 13 14  1  0
  2 15  1  0
 15 16  2  0
 16 17  1  0
 17 18  2  0
 18 19  1  0
 19 20  2  0
 14  4  1  0
 20 15  1  0
 13  6  1  0
M  END
$$$$
