
     RDKit          3D

 45 45  0  0  0  0  0  0  0  0999 V2000
  -17.2358   23.9273  -42.4025 C   0  0  0  0  0  0  0  0  0  0  0  0
  -18.0179   22.9595  -41.8649 O   0  0  0  0  0  0  0  0  0  0  0  0
  -19.3152   23.0156  -41.9014 C   0  0  1  0  0  0  0  0  0  0  0  0
  -19.9754   22.0679  -42.8233 C   0  0  0  0  0  0  0  0  0  0  0  0
  -19.6437   20.8135  -42.7614 C   0  0  0  0  0  0  0  0  0  0  0  0
  -18.6957   20.0701  -41.9338 C   0  0  0  0  0  0  0  0  0  0  0  0
  -17.4146   19.9060  -41.6970 C   0  0  0  0  0  0  0  0  0  0  0  0
  -16.1982   20.6070  -42.3760 C   0  0  0  0  0  0  0  0  0  0  0  0
  -16.7542   18.9987  -40.6796 C   0  0  0  0  0  0  0  0  0  0  0  0
  -15.4291   19.0922  -40.6376 O   0  0  0  0  0  0  0  0  0  0  0  0
  -17.1277   18.0358  -39.7139 N   0  0  0  0  0  0  0  0  0  0  0  0
  -17.9059   17.9709  -38.5084 C   0  0  0  0  0  0  0  0  0  0  0  0
  -18.7131   16.8815  -38.5652 C   0  0  0  0  0  0  0  0  0  0  0  0
  -19.6384   16.4667  -37.5387 C   0  0  0  0  0  0  0  0  0  0  0  0
  -20.3702   15.4352  -37.6476 O   0  0  0  0  0  0  0  0  0  0  0  0
  -19.6766   17.3146  -36.3634 C   0  0  0  0  0  0  0  0  0  0  0  0
  -20.6002   16.8663  -35.3376 N   0  0  0  0  0  0  0  0  0  0  0  0
  -20.1564   15.7624  -34.5421 C   0  0  0  0  0  0  0  0  0  0  0  0
  -21.1596   15.3444  -33.4968 C   0  0  0  0  0  0  0  0  0  0  0  0
  -20.6044   14.2174  -32.7503 N   0  0  0  0  0  0  0  0  0  0  0  0
  -21.5664   13.8105  -31.7444 C   0  0  0  0  0  0  0  0  0  0  0  0
  -19.3479   14.5342  -32.1423 C   0  0  0  0  0  0  0  0  0  0  0  0
  -18.9199   18.4344  -36.1840 C   0  0  0  0  0  0  0  0  0  0  0  0
  -19.2216   19.0423  -34.8754 C   0  0  0  0  0  0  0  0  0  0  0  0
  -20.0809   20.2876  -34.8853 C   0  0  1  0  0  0  0  0  0  0  0  0
  -19.2282   21.4746  -35.1220 C   0  0  0  0  0  0  0  0  0  0  0  0
  -21.3251   20.1339  -35.6978 C   0  0  0  0  0  0  0  0  0  0  0  0
  -21.8425   21.3810  -36.2806 C   0  0  2  0  0  0  0  0  0  0  0  0
  -22.7454   22.0766  -35.4407 O   0  0  0  0  0  0  0  0  0  0  0  0
  -22.4241   23.3723  -35.2069 C   0  0  0  0  0  0  0  0  0  0  0  0
  -22.5982   21.2010  -37.5798 C   0  0  2  0  0  0  0  0  0  0  0  0
  -23.6765   20.3389  -37.4771 O   0  0  0  0  0  0  0  0  0  0  0  0
  -21.7932   20.7521  -38.7527 C   0  0  1  0  0  0  0  0  0  0  0  0
  -22.7205   20.8280  -39.9280 C   0  0  0  0  0  0  0  0  0  0  0  0
  -20.4491   21.4063  -38.8816 C   0  0  0  0  0  0  0  0  0  0  0  0
  -19.7541   22.2989  -39.5068 C   0  0  0  0  0  0  0  0  0  0  0  0
  -18.2604   22.6715  -39.2885 C   0  0  0  0  0  0  0  0  0  0  0  0
  -20.1214   23.2462  -40.6518 C   0  0  2  0  0  0  0  0  0  0  0  0
  -21.3955   23.4154  -41.0735 O   0  0  0  0  0  0  0  0  0  0  0  0
  -22.1742   24.5526  -41.0267 C   0  0  0  0  0  0  0  0  0  0  0  0
  -23.4982   24.4784  -41.5387 N   0  0  0  0  0  0  0  0  0  0  0  0
  -21.6759   25.5740  -40.5419 O   0  0  0  0  0  0  0  0  0  0  0  0
  -18.0090   18.7790  -37.2783 C   0  0  0  0  0  0  0  0  0  0  0  0
  -17.2479   19.8752  -37.1368 O   0  0  0  0  0  0  0  0  0  0  0  0
  -19.9655   19.5446  -37.3651 Cl  0  0  0  0  0  0  0  0  0  0  0  0
  1  2  1  0
  3  2  1  1
  3  4  1  0
  4  5  2  0
  5  6  1  0
  6  7  2  0
  7  8  1  0
  7  9  1  0
  9 10  2  0
  9 11  1  0
 11 12  1  0
 12 13  2  0
 13 14  1  0
 14 15  2  0
 14 16  1  0
 16 17  1  0
 17 18  1  0
 18 19  1  0
 19 20  1  0
 20 21  1  0
 20 22  1  0
 16 23  2  0
 23 24  1  0
 24 25  1  0
 25 26  1  6
 25 27  1  0
 27 28  1  0
 28 29  1  1
 29 30  1  0
 28 31  1  0
 31 32  1  1
 31 33  1  0
 33 34  1  6
 33 35  1  0
 35 36  2  0
 36 37  1  0
 36 38  1  0
 38 39  1  6
 39 40  1  0
 40 41  1  0
 40 42  2  0
 23 43  1  0
 43 44  2  0
 38  3  1  0
 43 12  1  0
M  END
$$$$
