
     RDKit          3D

 36 39  0  0  0  0  0  0  0  0999 V2000
  -15.0821   17.7976  -34.2061 C   0  0  0  0  0  0  0  0  0  0  0  0
  -15.6608   17.5653  -35.5988 C   0  0  0  0  0  0  0  0  0  0  0  0
  -15.2800   16.1665  -36.0374 C   0  0  0  0  0  0  0  0  0  0  0  0
  -17.1588   17.5905  -35.5123 C   0  0  0  0  0  0  0  0  0  0  0  0
  -17.8957   17.3647  -34.4489 O   0  0  0  0  0  0  0  0  0  0  0  0
  -19.1627   17.4707  -34.7223 N   0  0  0  0  0  0  0  0  0  0  0  0
  -19.3303   17.7805  -36.0200 C   0  0  0  0  0  0  0  0  0  0  0  0
  -20.5762   17.9895  -36.7463 C   0  0  0  0  0  0  0  0  0  0  0  0
  -21.3329   19.1284  -36.5457 C   0  0  0  0  0  0  0  0  0  0  0  0
  -20.7851   20.3366  -35.4044 Cl  0  0  0  0  0  0  0  0  0  0  0  0
  -22.5130   19.3580  -37.2119 C   0  0  0  0  0  0  0  0  0  0  0  0
  -22.9803   18.4478  -38.1098 C   0  0  0  0  0  0  0  0  0  0  0  0
  -22.2536   17.3007  -38.3365 C   0  0  0  0  0  0  0  0  0  0  0  0
  -21.0682   17.0755  -37.6635 C   0  0  0  0  0  0  0  0  0  0  0  0
  -20.1441   15.5989  -37.9604 Cl  0  0  0  0  0  0  0  0  0  0  0  0
  -18.0427   17.8595  -36.5372 C   0  0  0  0  0  0  0  0  0  0  0  0
  -17.7325   18.1636  -37.9739 C   0  0  0  0  0  0  0  0  0  0  0  0
  -18.2676   19.2059  -38.5222 O   0  0  0  0  0  0  0  0  0  0  0  0
  -18.8101   20.1230  -39.2471 C   0  0  0  0  0  0  0  0  0  0  0  0
  -19.1027   21.4139  -38.8008 C   0  0  0  0  0  0  0  0  0  0  0  0
  -19.6856   22.3274  -39.6538 C   0  0  0  0  0  0  0  0  0  0  0  0
  -20.0004   22.0236  -40.9505 C   0  0  0  0  0  0  0  0  0  0  0  0
  -20.6080   22.9973  -41.8451 C   0  0  0  0  0  0  0  0  0  0  0  0
  -20.5880   24.2904  -41.7048 C   0  0  0  0  0  0  0  0  0  0  0  0
  -21.1535   25.2487  -42.6611 C   0  0  0  0  0  0  0  0  0  0  0  0
  -21.7841   24.8679  -43.8182 C   0  0  0  0  0  0  0  0  0  0  0  0
  -22.2948   25.8208  -44.6875 C   0  0  0  0  0  0  0  0  0  0  0  0
  -22.1713   27.1536  -44.3936 C   0  0  0  0  0  0  0  0  0  0  0  0
  -21.5418   27.5801  -43.2357 C   0  0  0  0  0  0  0  0  0  0  0  0
  -21.4177   29.0074  -42.9360 C   0  0  0  0  0  0  0  0  0  0  0  0
  -20.8596   29.3567  -41.8720 O   0  0  0  0  0  0  0  0  0  0  0  0
  -21.8985   29.9626  -43.7943 O   0  0  0  0  0  0  0  0  0  0  0  0
  -21.0470   26.6205  -42.3954 C   0  0  0  0  0  0  0  0  0  0  0  0
  -19.7235   20.7562  -41.4198 C   0  0  0  0  0  0  0  0  0  0  0  0
  -20.1339   20.3803  -43.0891 Cl  0  0  0  0  0  0  0  0  0  0  0  0
  -19.1443   19.8340  -40.5894 C   0  0  0  0  0  0  0  0  0  0  0  0
  1  2  1  0
  2  3  1  0
  2  4  1  0
  4  5  1  0
  5  6  1  0
  6  7  2  0
  7  8  1  0
  8  9  2  0
  9 10  1  0
  9 11  1  0
 11 12  2  0
 12 13  1  0
 13 14  2  0
 14 15  1  0
  7 16  1  0
 16 17  1  0
 17 18  1  0
 18 19  1  0
 19 20  2  0
 20 21  1  0
 21 22  2  0
 22 23  1  0
 23 24  2  0
 24 25  1  0
 25 26  2  0
 26 27  1  0
 27 28  2  0
 28 29  1  0
 29 30  1  0
 30 31  2  0
 30 32  1  0
 29 33  2  0
 22 34  1  0
 34 35  1  0
 34 36  2  0
 16  4  2  0
 36 19  1  0
 14  8  1  0
 33 25  1  0
M  END
$$$$
