
     RDKit          3D

 36 40  0  0  0  0  0  0  0  0999 V2000
  -15.1692   40.5660  -14.8081 C   0  0  0  0  0  0  0  0  0  0  0  0
  -16.3691   41.1931  -15.4886 C   0  0  0  0  0  0  0  0  0  0  0  0
  -16.3672   40.9571  -16.8684 O   0  0  0  0  0  0  0  0  0  0  0  0
  -17.5980   40.9581  -17.5281 C   0  0  0  0  0  0  0  0  0  0  0  0
  -18.6605   40.9082  -16.8789 O   0  0  0  0  0  0  0  0  0  0  0  0
  -17.6936   41.0149  -18.9431 N   0  0  0  0  0  0  0  0  0  0  0  0
  -17.4520   39.8437  -19.7293 C   0  0  2  0  0  0  0  0  0  0  0  0
  -17.0815   40.1863  -21.1660 C   0  0  0  0  0  0  0  0  0  0  0  0
  -18.3234   40.5256  -21.9753 C   0  0  0  0  0  0  0  0  0  0  0  0
  -19.3042   39.3605  -21.9992 C   0  0  2  0  0  0  0  0  0  0  0  0
  -18.7480   38.3080  -21.0883 C   0  0  1  0  0  0  0  0  0  0  0  0
  -18.6216   38.8829  -19.7084 C   0  0  0  0  0  0  0  0  0  0  0  0
  -19.6730   37.1150  -21.1365 C   0  0  0  0  0  0  0  0  0  0  0  0
  -19.4790   36.4851  -22.4986 C   0  0  1  0  0  0  0  0  0  0  0  0
  -20.5109   35.3920  -22.5985 C   0  0  0  0  0  0  0  0  0  0  0  0
  -20.2817   34.1733  -22.5762 O   0  0  0  0  0  0  0  0  0  0  0  0
  -21.7239   36.0860  -22.7162 O   0  0  0  0  0  0  0  0  0  0  0  0
  -21.4774   37.3222  -23.3969 C   0  0  2  0  0  0  0  0  0  0  0  0
  -22.1581   37.2081  -24.7489 C   0  0  0  0  0  0  0  0  0  0  0  0
  -19.9957   37.4633  -23.5133 C   0  0  1  0  0  0  0  0  0  0  0  0
  -19.4739   38.8386  -23.3892 C   0  0  1  0  0  0  0  0  0  0  0  0
  -20.3067   39.7326  -24.2421 C   0  0  0  0  0  0  0  0  0  0  0  0
  -20.4128   41.0218  -24.1118 C   0  0  0  0  0  0  0  0  0  0  0  0
  -20.7547   41.8994  -25.2473 C   0  0  0  0  0  0  0  0  0  0  0  0
  -21.9273   41.6903  -25.9434 C   0  0  0  0  0  0  0  0  0  0  0  0
  -22.2731   42.4906  -27.0058 C   0  0  0  0  0  0  0  0  0  0  0  0
  -21.4418   43.5245  -27.3929 C   0  0  0  0  0  0  0  0  0  0  0  0
  -21.8333   44.3570  -28.5230 C   0  0  0  0  0  0  0  0  0  0  0  0
  -22.9429   45.1626  -28.4299 C   0  0  0  0  0  0  0  0  0  0  0  0
  -23.3260   45.9609  -29.5006 C   0  0  0  0  0  0  0  0  0  0  0  0
  -22.5974   45.9482  -30.6561 C   0  0  0  0  0  0  0  0  0  0  0  0
  -21.4930   45.1582  -30.7738 C   0  0  0  0  0  0  0  0  0  0  0  0
  -20.7779   45.1532  -31.9242 F   0  0  0  0  0  0  0  0  0  0  0  0
  -21.1086   44.3644  -29.7150 C   0  0  0  0  0  0  0  0  0  0  0  0
  -20.2751   43.7146  -26.6825 C   0  0  0  0  0  0  0  0  0  0  0  0
  -19.9632   42.9047  -25.6367 N   0  0  0  0  0  0  0  0  0  0  0  0
  1  2  1  0
  2  3  1  0
  3  4  1  0
  4  5  2  0
  4  6  1  0
  7  6  1  1
  7  8  1  0
  8  9  1  0
 10  9  1  6
 10 11  1  0
 11 12  1  1
 11 13  1  0
 14 13  1  1
 14 15  1  0
 15 16  2  0
 15 17  1  0
 17 18  1  0
 18 19  1  6
 20 18  1  1
 20 21  1  0
 21 22  1  6
 22 23  2  0
 23 24  1  0
 24 25  2  0
 25 26  1  0
 26 27  2  0
 27 28  1  0
 28 29  2  0
 29 30  1  0
 30 31  2  0
 31 32  1  0
 32 33  1  0
 32 34  2  0
 27 35  1  0
 35 36  2  0
 12  7  1  0
 20 14  1  0
 36 24  1  0
 21 10  1  0
 34 28  1  0
M  END
$$$$
