
     RDKit          3D

 33 34  0  0  0  0  0  0  0  0999 V2000
  -24.3169   43.2496  -28.6031 C   0  0  0  0  0  0  0  0  0  0  0  0
  -23.5315   42.8945  -27.3772 C   0  0  0  0  0  0  0  0  0  0  0  0
  -23.1318   41.6883  -26.9567 N   0  0  0  0  0  0  0  0  0  0  0  0
  -22.4577   41.8355  -25.8150 N   0  0  0  0  0  0  0  0  0  0  0  0
  -22.4454   43.1618  -25.5320 C   0  0  0  0  0  0  0  0  0  0  0  0
  -21.7942   43.7480  -24.3415 C   0  0  0  0  0  0  0  0  0  0  0  0
  -21.8803   44.9961  -24.2301 O   0  0  0  0  0  0  0  0  0  0  0  0
  -21.1213   42.9247  -23.4009 N   0  0  0  0  0  0  0  0  0  0  0  0
  -20.4961   43.4889  -22.2587 C   0  0  0  0  0  0  0  0  0  0  0  0
  -21.3957   44.2702  -21.3491 C   0  0  0  0  0  0  0  0  0  0  0  0
  -19.4867   44.5153  -22.8131 C   0  0  0  0  0  0  0  0  0  0  0  0
  -19.7115   42.5333  -21.4389 C   0  0  0  0  0  0  0  0  0  0  0  0
  -18.4655   42.8642  -21.1122 N   0  0  0  0  0  0  0  0  0  0  0  0
  -17.6346   42.1040  -20.3606 C   0  0  0  0  0  0  0  0  0  0  0  0
  -16.2948   42.5961  -20.0819 C   0  0  0  0  0  0  0  0  0  0  0  0
  -15.9782   43.7453  -20.5647 O   0  0  0  0  0  0  0  0  0  0  0  0
  -15.2853   41.9606  -19.3375 N   0  0  0  0  0  0  0  0  0  0  0  0
  -13.9590   42.5188  -19.0940 C   0  0  0  0  0  0  0  0  0  0  0  0
  -13.9397   43.5513  -18.0423 C   0  0  0  0  0  0  0  0  0  0  0  0
  -13.8295   43.1594  -16.7137 C   0  0  0  0  0  0  0  0  0  0  0  0
  -13.7951   44.1115  -15.7179 C   0  0  0  0  0  0  0  0  0  0  0  0
  -13.8699   45.4496  -16.0381 C   0  0  0  0  0  0  0  0  0  0  0  0
  -13.8334   46.3562  -15.0383 F   0  0  0  0  0  0  0  0  0  0  0  0
  -13.9795   45.8651  -17.3478 C   0  0  0  0  0  0  0  0  0  0  0  0
  -14.0117   44.8848  -18.3324 C   0  0  0  0  0  0  0  0  0  0  0  0
  -18.1476   40.9161  -19.9229 C   0  0  0  0  0  0  0  0  0  0  0  0
  -17.4058   40.0632  -19.1575 O   0  0  0  0  0  1  0  0  0  0  0  0
  -19.4522   40.5422  -20.2496 C   0  0  0  0  0  0  0  0  0  0  0  0
  -19.9294   39.4506  -19.8496 O   0  0  0  0  0  0  0  0  0  0  0  0
  -20.1917   41.3664  -20.9983 N   0  0  0  0  0  0  0  0  0  0  0  0
  -21.5649   41.0119  -21.3335 C   0  0  0  0  0  0  0  0  0  0  0  0
  -23.0921   43.7535  -26.4819 O   0  0  0  0  0  0  0  0  0  0  0  0
  -18.7779   43.1413  -21.4091 K   0  0  0  0  0 15  0  0  0  0  0  0
  1  2  1  0
  2  3  2  0
  3  4  1  0
  4  5  2  0
  5  6  1  0
  6  7  2  0
  6  8  1  0
  8  9  1  0
  9 10  1  0
  9 11  1  0
  9 12  1  0
 12 13  2  0
 13 14  1  0
 14 15  1  0
 15 16  2  0
 15 17  1  0
 17 18  1  0
 18 19  1  0
 19 20  2  0
 20 21  1  0
 21 22  2  0
 22 23  1  0
 22 24  1  0
 24 25  2  0
 14 26  2  0
 26 27  1  0
 26 28  1  0
 28 29  2  0
 28 30  1  0
 30 31  1  0
  5 32  1  0
 32  2  1  0
 30 12  1  0
 25 19  1  0
M  CHG  2  27  -1  33   1
M  END
$$$$
