
     RDKit          3D

 38 42  0  0  0  0  0  0  0  0999 V2000
  -17.2589   21.6011  -38.4627 C   0  0  0  0  0  0  0  0  0  0  0  0
  -17.7297   21.5631  -39.9031 C   0  0  0  0  0  0  0  0  0  0  0  0
  -16.9243   20.6096  -40.6773 N   0  0  0  0  0  0  0  0  0  0  0  0
  -16.3430   19.5409  -40.1236 C   0  0  0  0  0  0  0  0  0  0  0  0
  -15.6825   18.8991  -41.1749 C   0  0  0  0  0  0  0  0  0  0  0  0
  -14.9189   17.6930  -41.0542 C   0  0  0  0  0  0  0  0  0  0  0  0
  -15.4146   16.5776  -40.4194 C   0  0  0  0  0  0  0  0  0  0  0  0
  -14.5771   15.4667  -40.3558 C   0  0  0  0  0  0  0  0  0  0  0  0
  -13.3421   15.4622  -40.8817 N   0  0  0  0  0  0  0  0  0  0  0  0
  -12.8532   16.5495  -41.5033 C   0  0  0  0  0  0  0  0  0  0  0  0
  -11.6685   16.8116  -42.1101 N   0  0  0  0  0  0  0  0  0  0  0  0
  -11.6485   18.0582  -42.5928 C   0  0  0  0  0  0  0  0  0  0  0  0
  -10.5295   18.6678  -43.3025 C   0  0  0  0  0  0  0  0  0  0  0  0
  -10.1693   19.9830  -43.1016 C   0  0  0  0  0  0  0  0  0  0  0  0
   -9.1097   20.5742  -43.7617 C   0  0  0  0  0  0  0  0  0  0  0  0
   -8.3826   19.8019  -44.6640 C   0  0  0  0  0  0  0  0  0  0  0  0
   -8.7145   18.4829  -44.8899 C   0  0  0  0  0  0  0  0  0  0  0  0
   -7.9428   17.6800  -45.8350 C   0  0  0  0  0  0  0  0  0  0  0  0
   -6.8895   16.8977  -45.2866 N   0  0  0  0  0  0  0  0  0  0  0  0
   -6.4413   15.8012  -46.0801 C   0  0  0  0  0  0  0  0  0  0  0  0
   -5.8495   17.6342  -44.6392 C   0  0  0  0  0  0  0  0  0  0  0  0
   -9.7745   17.9284  -44.2158 C   0  0  0  0  0  0  0  0  0  0  0  0
  -12.8701   18.6090  -42.2791 C   0  0  0  0  0  0  0  0  0  0  0  0
  -13.6412   17.6775  -41.5945 C   0  0  0  0  0  0  0  0  0  0  0  0
  -15.8932   19.6121  -42.3311 C   0  0  0  0  0  0  0  0  0  0  0  0
  -15.4330   19.3835  -43.6865 C   0  0  0  0  0  0  0  0  0  0  0  0
  -14.8468   20.3466  -44.4809 C   0  0  0  0  0  0  0  0  0  0  0  0
  -14.4180   20.0656  -45.7675 C   0  0  0  0  0  0  0  0  0  0  0  0
  -14.5537   18.8117  -46.3231 C   0  0  0  0  0  0  0  0  0  0  0  0
  -14.1118   18.5195  -47.6498 N   0  0  0  0  0  0  0  0  0  0  0  0
  -14.4692   17.3007  -48.3019 C   0  0  0  0  0  0  0  0  0  0  0  0
  -15.1722   16.5019  -47.6323 O   0  0  0  0  0  0  0  0  0  0  0  0
  -14.0707   16.9867  -49.6174 N   0  0  0  0  0  0  0  0  0  0  0  0
  -14.4801   15.7348  -50.2073 C   0  0  0  0  0  0  0  0  0  0  0  0
  -13.2594   17.8841  -50.4043 C   0  0  0  0  0  0  0  0  0  0  0  0
  -15.1386   17.8388  -45.5398 C   0  0  0  0  0  0  0  0  0  0  0  0
  -15.5666   18.1130  -44.2595 C   0  0  0  0  0  0  0  0  0  0  0  0
  -16.6632   20.6537  -41.9664 N   0  0  0  0  0  0  0  0  0  0  0  0
  1  2  1  0
  2  3  1  0
  3  4  1  0
  4  5  2  0
  5  6  1  0
  6  7  2  0
  7  8  1  0
  8  9  2  0
  9 10  1  0
 10 11  1  0
 11 12  1  0
 12 13  1  0
 13 14  2  0
 14 15  1  0
 15 16  2  0
 16 17  1  0
 17 18  1  0
 18 19  1  0
 19 20  1  0
 19 21  1  0
 17 22  2  0
 12 23  2  0
 23 24  1  0
  5 25  1  0
 25 26  1  0
 26 27  2  0
 27 28  1  0
 28 29  2  0
 29 30  1  0
 30 31  1  0
 31 32  2  0
 31 33  1  0
 33 34  1  0
 33 35  1  0
 29 36  1  0
 36 37  2  0
 25 38  2  0
 38  3  1  0
 24  6  1  0
 37 26  1  0
 24 10  2  0
 22 13  1  0
M  END
$$$$
