
     RDKit          3D

 37 41  0  0  0  0  0  0  0  0999 V2000
  -23.2562   27.9053  -44.8144 C   0  0  0  0  0  0  0  0  0  0  0  0
  -22.0950   28.0686  -44.0427 O   0  0  0  0  0  0  0  0  0  0  0  0
  -21.6994   27.2132  -43.0299 C   0  0  0  0  0  0  0  0  0  0  0  0
  -22.0909   25.8946  -42.9864 C   0  0  0  0  0  0  0  0  0  0  0  0
  -21.7039   25.0189  -41.9782 C   0  0  0  0  0  0  0  0  0  0  0  0
  -22.1636   23.6848  -41.9732 N   0  0  0  0  0  0  0  0  0  0  0  0
  -22.6490   22.9742  -40.8572 C   0  0  0  0  0  0  0  0  0  0  0  0
  -22.7956   21.6255  -41.0047 N   0  0  0  0  0  0  0  0  0  0  0  0
  -23.2050   20.8065  -40.0548 C   0  0  0  0  0  0  0  0  0  0  0  0
  -23.5204   21.3154  -38.7960 C   0  0  0  0  0  0  0  0  0  0  0  0
  -23.3707   22.6680  -38.6553 C   0  0  0  0  0  0  0  0  0  0  0  0
  -22.9448   23.4912  -39.6589 N   0  0  0  0  0  0  0  0  0  0  0  0
  -23.6135   23.4491  -37.4194 C   0  0  0  0  0  0  0  0  0  0  0  0
  -23.3320   24.7695  -37.6070 C   0  0  0  0  0  0  0  0  0  0  0  0
  -23.5080   25.6546  -36.5460 C   0  0  0  0  0  0  0  0  0  0  0  0
  -23.9570   25.2505  -35.3058 C   0  0  0  0  0  0  0  0  0  0  0  0
  -24.1572   26.4106  -34.0133 Cl  0  0  0  0  0  0  0  0  0  0  0  0
  -24.2338   23.9090  -35.1424 C   0  0  0  0  0  0  0  0  0  0  0  0
  -24.0661   23.0196  -36.1791 C   0  0  0  0  0  0  0  0  0  0  0  0
  -24.3962   21.6542  -35.8074 C   0  0  0  0  0  0  0  0  0  0  0  0
  -24.8450   21.4301  -34.4505 C   0  0  0  0  0  0  0  0  0  0  0  0
  -26.0990   21.8924  -34.1090 C   0  0  0  0  0  0  0  0  0  0  0  0
  -26.8742   22.5416  -35.0388 F   0  0  0  0  0  0  0  0  0  0  0  0
  -26.6322   21.7336  -32.8484 C   0  0  0  0  0  0  0  0  0  0  0  0
  -25.8327   21.0740  -31.9210 C   0  0  0  0  0  0  0  0  0  0  0  0
  -24.5829   20.6097  -32.2496 C   0  0  0  0  0  0  0  0  0  0  0  0
  -24.0676   20.7788  -33.5169 C   0  0  0  0  0  0  0  0  0  0  0  0
  -22.7912   20.3022  -33.8453 O   0  0  0  0  0  0  0  0  0  0  0  0
  -22.1042   19.4305  -32.9822 C   0  0  0  0  0  0  0  0  0  0  0  0
  -24.3230   20.6255  -36.5546 N   0  0  0  0  0  0  0  0  0  0  0  0
  -23.9638   20.2768  -37.8758 C   0  0  0  0  0  0  0  0  0  0  0  0
  -20.8909   25.5445  -41.0005 C   0  0  0  0  0  0  0  0  0  0  0  0
  -20.4835   26.8839  -41.0294 C   0  0  0  0  0  0  0  0  0  0  0  0
  -20.8857   27.7266  -42.0445 C   0  0  0  0  0  0  0  0  0  0  0  0
  -20.4459   29.1164  -42.0451 C   0  0  0  0  0  0  0  0  0  0  0  0
  -21.2091   29.9679  -42.5634 O   0  0  0  0  0  0  0  0  0  0  0  0
  -19.2473   29.5540  -41.5135 O   0  0  0  0  0  0  0  0  0  0  0  0
  1  2  1  0
  2  3  1  0
  3  4  2  0
  4  5  1  0
  5  6  1  0
  6  7  1  0
  7  8  2  0
  8  9  1  0
  9 10  2  0
 10 11  1  0
 11 12  2  0
 11 13  1  0
 13 14  2  0
 14 15  1  0
 15 16  2  0
 16 17  1  0
 16 18  1  0
 18 19  2  0
 19 20  1  0
 20 21  1  0
 21 22  2  0
 22 23  1  0
 22 24  1  0
 24 25  2  0
 25 26  1  0
 26 27  2  0
 27 28  1  0
 28 29  1  0
 20 30  2  0
 30 31  1  0
  5 32  2  0
 32 33  1  0
 33 34  2  0
 34 35  1  0
 35 36  2  0
 35 37  1  0
 34  3  1  0
 12  7  1  0
 19 13  1  0
 27 21  1  0
 31 10  1  0
M  END
$$$$
