
     RDKit          3D

 24 27  0  0  0  0  0  0  0  0999 V2000
  -13.8742    2.9071  -31.2212 C   0  0  0  0  0  0  0  0  0  0  0  0
  -13.3658    1.6273  -31.9039 C   0  0  0  0  0  0  0  0  0  0  0  0
  -12.7274    2.0515  -33.1697 C   0  0  0  0  0  0  0  0  0  0  0  0
  -12.3263    1.0300  -30.9656 C   0  0  0  0  0  0  0  0  0  0  0  0
  -14.5061    0.7481  -32.0407 N   0  0  0  0  0  0  0  0  0  0  0  0
  -15.5849    1.1225  -32.7181 N   0  0  0  0  0  0  0  0  0  0  0  0
  -16.5127    0.1313  -32.7115 C   0  0  0  0  0  0  0  0  0  0  0  0
  -17.8383    0.1600  -33.3183 C   0  0  0  0  0  0  0  0  0  0  0  0
  -18.2683   -0.8180  -34.2100 C   0  0  0  0  0  0  0  0  0  0  0  0
  -19.5173   -0.7443  -34.8068 C   0  0  0  0  0  0  0  0  0  0  0  0
  -20.3917    0.2996  -34.5429 C   0  0  0  0  0  0  0  0  0  0  0  0
  -19.9706    1.2779  -33.6542 C   0  0  0  0  0  0  0  0  0  0  0  0
  -20.8319    2.3146  -33.3654 C   0  0  0  0  0  0  0  0  0  0  0  0
  -20.4384    3.2831  -32.4737 C   0  0  0  0  0  0  0  0  0  0  0  0
  -19.1949    3.2374  -31.8631 C   0  0  0  0  0  0  0  0  0  0  0  0
  -18.3637    2.1863  -32.1782 C   0  0  0  0  0  0  0  0  0  0  0  0
  -18.7128    1.1873  -33.0660 C   0  0  0  0  0  0  0  0  0  0  0  0
  -15.9698   -0.9055  -31.9866 C   0  0  0  0  0  0  0  0  0  0  0  0
  -16.4251   -2.1648  -31.6173 C   0  0  0  0  0  0  0  0  0  0  0  0
  -17.7102   -2.5774  -32.0155 N   0  0  0  0  0  0  0  0  0  0  0  0
  -15.6193   -2.9591  -30.8622 N   0  0  0  0  0  0  0  0  0  0  0  0
  -14.4143   -2.5045  -30.4995 C   0  0  0  0  0  0  0  0  0  0  0  0
  -13.9603   -1.2881  -30.8500 N   0  0  0  0  0  0  0  0  0  0  0  0
  -14.7310   -0.4809  -31.5931 C   0  0  0  0  0  0  0  0  0  0  0  0
  1  2  1  0
  2  3  1  0
  2  4  1  0
  2  5  1  0
  5  6  1  0
  6  7  2  0
  7  8  1  0
  8  9  2  0
  9 10  1  0
 10 11  2  0
 11 12  1  0
 12 13  2  0
 13 14  1  0
 14 15  2  0
 15 16  1  0
 16 17  2  0
  7 18  1  0
 18 19  2  0
 19 20  1  0
 19 21  1  0
 21 22  2  0
 22 23  1  0
 23 24  2  0
 24  5  1  0
 17  8  1  0
 24 18  1  0
 17 12  1  0
M  END
$$$$
