
     RDKit          3D

  5  4  0  0  0  0  0  0  0  0999 V2000
  -19.2822   35.2340  -25.9504 C   0  0  0  0  0  0  0  0  0  0  0  0
  -20.4665   34.8006  -24.6478 S   0  0  0  0  0  0  0  0  0  0  0  0
  -19.6298   34.6855  -23.0514 C   0  0  0  0  0  0  0  0  0  0  0  0
  -19.8988   35.6269  -22.2111 N   0  0  0  0  0  0  0  0  0  0  0  0
  -18.7487   33.6177  -22.7867 N   0  0  0  0  0  0  0  0  0  0  0  0
  1  2  1  0
  2  3  1  0
  3  4  2  0
  3  5  1  0
M  END
$$$$
