
     RDKit          3D

 32 34  0  0  0  0  0  0  0  0999 V2000
  -33.1432   12.5784  -16.3930 C   0  0  0  0  0  0  0  0  0  0  0  0
  -32.2417   12.3848  -17.1653 C   0  0  0  0  0  0  0  0  0  0  0  0
  -31.1335   12.1566  -18.0822 C   0  0  0  0  0  0  0  0  0  0  0  0
  -30.4151   10.9678  -18.0090 C   0  0  0  0  0  0  0  0  0  0  0  0
  -29.3817   10.7362  -18.8766 C   0  0  0  0  0  0  0  0  0  0  0  0
  -29.0485   11.6986  -19.8384 C   0  0  0  0  0  0  0  0  0  0  0  0
  -29.7262   12.8815  -19.9454 C   0  0  0  0  0  0  0  0  0  0  0  0
  -29.4253   13.8891  -20.8955 N   0  0  0  0  0  0  0  0  0  0  0  0
  -30.3794   14.5664  -21.6584 C   0  0  0  0  0  0  0  0  0  0  0  0
  -31.7081   14.3558  -21.5140 N   0  0  0  0  0  0  0  0  0  0  0  0
  -32.6549   14.9889  -22.2012 C   0  0  0  0  0  0  0  0  0  0  0  0
  -32.2598   15.9100  -23.1109 N   0  0  0  0  0  0  0  0  0  0  0  0
  -30.9653   16.1858  -23.3237 C   0  0  0  0  0  0  0  0  0  0  0  0
  -30.5687   17.1248  -24.2485 C   0  0  0  0  0  0  0  0  0  0  0  0
  -29.2760   17.4517  -24.5103 C   0  0  0  0  0  0  0  0  0  0  0  0
  -28.9084   18.4096  -25.4552 O   0  0  0  0  0  0  0  0  0  0  0  0
  -29.5800   19.6544  -25.3932 C   0  0  0  0  0  0  0  0  0  0  0  0
  -28.2776   16.7835  -23.7855 C   0  0  0  0  0  0  0  0  0  0  0  0
  -26.9839   17.0531  -23.9892 O   0  0  0  0  0  0  0  0  0  0  0  0
  -25.9306   17.5555  -23.2953 C   0  0  0  0  0  0  0  0  0  0  0  0
  -24.5722   16.9953  -23.5123 C   0  0  0  0  0  0  0  0  0  0  0  0
  -23.4510   18.0060  -23.4648 C   0  0  0  0  0  0  0  0  0  0  0  0
  -23.1982   18.6878  -24.7866 C   0  0  0  0  0  0  0  0  0  0  0  0
  -22.0974   19.6798  -24.7335 C   0  0  0  0  0  0  0  0  0  0  0  0
  -21.8208   20.4062  -26.0214 C   0  0  0  0  0  0  0  0  0  0  0  0
  -20.6586   19.8939  -26.7711 C   0  0  0  0  0  0  0  0  0  0  0  0
  -19.9077   18.9864  -26.3476 O   0  0  0  0  0  0  0  0  0  0  0  0
  -20.3490   20.4384  -28.0444 N   0  0  0  0  0  0  0  0  0  0  0  0
  -21.3062   21.0867  -28.7731 O   0  0  0  0  0  0  0  0  0  0  0  0
  -28.6735   15.8338  -22.8502 C   0  0  0  0  0  0  0  0  0  0  0  0
  -29.9948   15.5083  -22.5905 C   0  0  0  0  0  0  0  0  0  0  0  0
  -30.7714   13.0695  -19.0385 C   0  0  0  0  0  0  0  0  0  0  0  0
  1  2  3  0
  2  3  1  0
  3  4  2  0
  4  5  1  0
  5  6  2  0
  6  7  1  0
  7  8  1  0
  8  9  1  0
  9 10  2  0
 10 11  1  0
 11 12  2  0
 12 13  1  0
 13 14  2  0
 14 15  1  0
 15 16  1  0
 16 17  1  0
 15 18  2  0
 18 19  1  0
 19 20  1  0
 20 21  1  0
 21 22  1  0
 22 23  1  0
 23 24  1  0
 24 25  1  0
 25 26  1  0
 26 27  2  0
 26 28  1  0
 28 29  1  0
 18 30  1  0
 30 31  2  0
  7 32  2  0
 32  3  1  0
 31  9  1  0
 31 13  1  0
M  END
$$$$
