
     RDKit          3D

 36 41  0  0  0  0  0  0  0  0999 V2000
  -14.7287   43.4574  -18.3828 C   0  0  0  0  0  0  0  0  0  0  0  0
  -15.4834   44.5085  -19.2264 C   0  0  0  0  0  0  0  0  0  0  0  0
  -16.6521   43.7752  -19.7451 C   0  0  0  0  0  0  0  0  0  0  0  0
  -16.9917   42.5294  -19.2567 C   0  0  0  0  0  0  0  0  0  0  0  0
  -18.2124   41.9810  -19.6402 C   0  0  0  0  0  0  0  0  0  0  0  0
  -19.0848   42.6853  -20.4840 C   0  0  0  0  0  0  0  0  0  0  0  0
  -18.7067   43.8999  -20.9483 C   0  0  0  0  0  0  0  0  0  0  0  0
  -17.4995   44.5105  -20.6357 C   0  0  0  0  0  0  0  0  0  0  0  0
  -16.9992   45.5393  -21.3895 N   0  0  0  0  0  0  0  0  0  0  0  0
  -17.3132   46.4997  -22.3332 C   0  0  0  0  0  0  0  0  0  0  0  0
  -16.9436   47.9217  -21.8819 C   0  0  0  0  0  0  0  0  0  0  0  0
  -16.3350   48.0994  -20.5493 C   0  0  0  0  0  0  0  0  0  0  0  0
  -17.1773   48.8133  -19.6146 N   0  0  0  0  0  0  0  0  0  0  0  0
  -17.8425   48.0866  -18.6183 C   0  0  0  0  0  0  0  0  0  0  0  0
  -18.5324   49.1643  -17.7312 C   0  0  0  0  0  0  0  0  0  0  0  0
  -19.4850   49.8594  -18.4159 O   0  0  0  0  0  0  0  0  0  0  0  0
  -19.1842   50.1825  -19.7248 C   0  0  0  0  0  0  0  0  0  0  0  0
  -17.7191   50.0499  -20.0124 C   0  0  0  0  0  0  0  0  0  0  0  0
  -15.8251   46.8409  -19.8718 C   0  0  0  0  0  0  0  0  0  0  0  0
  -15.4968   45.7863  -20.9417 C   0  0  0  0  0  0  0  0  0  0  0  0
  -20.4237   42.1278  -20.6396 C   0  0  0  0  0  0  0  0  0  0  0  0
  -20.9193   41.8721  -19.1774 C   0  0  0  0  0  0  0  0  0  0  0  0
  -21.4144   42.8128  -21.4686 C   0  0  0  0  0  0  0  0  0  0  0  0
  -20.2884   40.6636  -21.1492 C   0  0  0  0  0  0  0  0  0  0  0  0
  -20.8877   39.9952  -22.0726 N   0  0  0  0  0  0  0  0  0  0  0  0
  -20.4208   38.6511  -22.0063 C   0  0  0  0  0  0  0  0  0  0  0  0
  -20.6329   37.5440  -22.7876 C   0  0  0  0  0  0  0  0  0  0  0  0
  -19.9113   36.3864  -22.5098 C   0  0  0  0  0  0  0  0  0  0  0  0
  -20.0316   35.1210  -23.3742 C   0  0  0  0  0  0  0  0  0  0  0  0
  -20.1169   34.2190  -23.9766 N   0  0  0  0  0  0  0  0  0  0  0  0
  -19.0136   36.3339  -21.4678 C   0  0  0  0  0  0  0  0  0  0  0  0
  -18.8608   37.5066  -20.7112 C   0  0  0  0  0  0  0  0  0  0  0  0
  -19.5078   38.6292  -20.9447 C   0  0  0  0  0  0  0  0  0  0  0  0
  -19.4235   39.9108  -20.4080 C   0  0  0  0  0  0  0  0  0  0  0  0
  -18.3782   40.5800  -19.6019 C   0  0  0  0  0  0  0  0  0  0  0  0
  -17.6501   39.7705  -18.8782 O   0  0  0  0  0  0  0  0  0  0  0  0
  1  2  1  0
  2  3  1  0
  3  4  2  0
  4  5  1  0
  5  6  2  0
  6  7  1  0
  7  8  2  0
  8  9  1  0
  9 10  1  0
 10 11  1  0
 11 12  1  0
 12 13  1  0
 13 14  1  0
 14 15  1  0
 15 16  1  0
 16 17  1  0
 17 18  1  0
 12 19  1  0
 19 20  1  0
  6 21  1  0
 21 22  1  0
 21 23  1  0
 21 24  1  0
 24 25  1  0
 25 26  1  0
 26 27  2  0
 27 28  1  0
 28 29  1  0
 29 30  3  0
 28 31  2  0
 31 32  1  0
 32 33  2  0
 33 34  1  0
 34 35  1  0
 35 36  2  0
  8  3  1  0
 20  9  1  0
 34 24  2  0
 35  5  1  0
 18 13  1  0
 33 26  1  0
M  END
$$$$
