
     RDKit          3D

 39 39  0  0  0  0  0  0  0  0999 V2000
   -8.4479   20.1816  -40.1321 C   0  0  0  0  0  0  0  0  0  0  0  0
   -9.5909   19.8901  -39.5477 O   0  0  0  0  0  0  0  0  0  0  0  0
  -10.5102   19.0937  -40.0225 C   0  0  0  0  0  0  0  0  0  0  0  0
  -11.8474   19.0175  -39.4328 C   0  0  0  0  0  0  0  0  0  0  0  0
  -12.7805   17.9275  -39.7025 C   0  0  0  0  0  0  0  0  0  0  0  0
  -13.4986   17.3275  -38.6922 O   0  0  0  0  0  0  0  0  0  0  0  0
  -14.8480   17.0725  -38.8886 C   0  0  0  0  0  0  0  0  0  0  0  0
  -15.6750   18.0009  -39.5254 C   0  0  0  0  0  0  0  0  0  0  0  0
  -17.0109   17.7554  -39.7229 C   0  0  0  0  0  0  0  0  0  0  0  0
  -17.8516   18.7459  -40.3925 C   0  0  0  0  0  0  0  0  0  0  0  0
  -18.5069   19.7488  -39.5407 C   0  0  1  0  0  0  0  0  0  0  0  0
  -19.9770   19.5229  -39.4155 C   0  0  0  0  0  0  0  0  0  0  0  0
  -20.9151   20.4101  -40.1345 C   0  0  2  0  0  0  0  0  0  0  0  0
  -20.4300   21.6120  -40.6876 N   0  0  0  0  0  0  0  0  0  0  0  0
  -22.1774   20.6395  -39.3010 C   0  0  1  0  0  0  0  0  0  0  0  0
  -22.0024   20.2644  -37.9906 O   0  0  0  0  0  0  0  0  0  0  0  0
  -22.9028   21.8890  -39.5663 C   0  0  0  0  0  0  0  0  0  0  0  0
  -24.1476   22.2040  -38.8400 C   0  0  2  0  0  0  0  0  0  0  0  0
  -23.9866   22.7096  -37.4580 C   0  0  0  0  0  0  0  0  0  0  0  0
  -22.8704   22.9912  -36.9264 O   0  0  0  0  0  0  0  0  0  0  0  0
  -25.1383   22.9127  -36.6209 N   0  0  0  0  0  0  0  0  0  0  0  0
  -25.7196   24.2335  -36.5511 C   0  0  0  0  0  0  0  0  0  0  0  0
  -24.6759   25.2685  -36.2079 C   0  0  0  0  0  0  0  0  0  0  0  0
  -23.6405   24.6032  -35.3344 C   0  0  0  0  0  0  0  0  0  0  0  0
  -24.0329   25.7283  -37.4971 C   0  0  0  0  0  0  0  0  0  0  0  0
  -25.2821   26.4049  -35.4839 C   0  0  0  0  0  0  0  0  0  0  0  0
  -24.6460   27.6676  -35.4145 N   0  0  0  0  0  0  0  0  0  0  0  0
  -26.3913   26.2295  -34.9209 O   0  0  0  0  0  0  0  0  0  0  0  0
  -25.1088   21.0161  -38.8755 C   0  0  0  0  0  0  0  0  0  0  0  0
  -25.4043   20.5188  -40.2473 C   0  0  0  0  0  0  0  0  0  0  0  0
  -24.5947   19.9113  -37.9642 C   0  0  0  0  0  0  0  0  0  0  0  0
  -17.9695   19.8750  -38.1253 C   0  0  0  0  0  0  0  0  0  0  0  0
  -18.8875   19.3032  -37.0829 C   0  0  0  0  0  0  0  0  0  0  0  0
  -16.5320   19.5081  -37.9720 C   0  0  0  0  0  0  0  0  0  0  0  0
  -17.5196   16.5713  -39.2785 C   0  0  0  0  0  0  0  0  0  0  0  0
  -16.7171   15.6503  -38.6511 C   0  0  0  0  0  0  0  0  0  0  0  0
  -15.3908   15.8862  -38.4514 C   0  0  0  0  0  0  0  0  0  0  0  0
  -14.5843   14.9524  -37.8172 O   0  0  0  0  0  0  0  0  0  0  0  0
  -14.2870   13.7341  -38.4523 C   0  0  0  0  0  0  0  0  0  0  0  0
  1  2  1  0
  2  3  1  0
  3  4  1  0
  4  5  1  0
  5  6  1  0
  6  7  1  0
  7  8  2  0
  8  9  1  0
  9 10  1  0
 11 10  1  1
 11 12  1  0
 12 13  1  0
 13 14  1  1
 13 15  1  0
 15 16  1  1
 15 17  1  0
 18 17  1  1
 18 19  1  0
 19 20  2  0
 19 21  1  0
 21 22  1  0
 22 23  1  0
 23 24  1  0
 23 25  1  0
 23 26  1  0
 26 27  1  0
 26 28  2  0
 18 29  1  0
 29 30  1  0
 29 31  1  0
 11 32  1  0
 32 33  1  0
 32 34  1  0
  9 35  2  0
 35 36  1  0
 36 37  2  0
 37 38  1  0
 38 39  1  0
 37  7  1  0
M  END
$$$$
