
     RDKit          3D

 11 11  0  0  0  0  0  0  0  0999 V2000
  -19.9000   42.8833  -23.8268 N   0  0  0  0  0  0  0  0  0  0  0  0
  -19.4562   41.6560  -23.2915 C   0  0  0  0  0  0  0  0  0  0  0  0
  -19.8785   41.1929  -22.0532 C   0  0  0  0  0  0  0  0  0  0  0  0
  -19.4434   40.0076  -21.5477 C   0  0  0  0  0  0  0  0  0  0  0  0
  -18.5684   39.2395  -22.2627 C   0  0  0  0  0  0  0  0  0  0  0  0
  -17.9682   37.7029  -21.6711 S   0  0  0  0  0  6  0  0  0  0  0  0
  -19.1585   36.5072  -22.0254 N   0  0  0  0  0  0  0  0  0  0  0  0
  -16.6752   37.3197  -22.3378 O   0  0  0  0  0  0  0  0  0  0  0  0
  -17.7854   37.8342  -20.1653 O   0  0  0  0  0  0  0  0  0  0  0  0
  -18.1266   39.6692  -23.4996 C   0  0  0  0  0  0  0  0  0  0  0  0
  -18.5756   40.8729  -24.0002 C   0  0  0  0  0  0  0  0  0  0  0  0
  1  2  1  0
  2  3  2  0
  3  4  1  0
  4  5  2  0
  5  6  1  0
  6  7  1  0
  6  8  2  0
  6  9  2  0
  5 10  1  0
 10 11  2  0
 11  2  1  0
M  END
$$$$
