
     RDKit          3D

 36 39  0  0  0  0  0  0  0  0999 V2000
  -25.0045   17.3930  -21.4661 C   0  0  0  0  0  0  0  0  0  0  0  0
  -24.1052   17.4667  -22.5516 O   0  0  0  0  0  0  0  0  0  0  0  0
  -24.6335   17.4081  -23.8380 C   0  0  0  0  0  0  0  0  0  0  0  0
  -25.3227   16.2994  -24.2706 C   0  0  0  0  0  0  0  0  0  0  0  0
  -25.8676   16.1716  -25.5176 C   0  0  0  0  0  0  0  0  0  0  0  0
  -26.5760   14.9975  -25.9363 N   0  0  0  0  0  0  0  0  0  0  0  0
  -27.8729   14.9990  -26.5175 C   0  0  0  0  0  0  0  0  0  0  0  0
  -28.7926   13.8934  -25.9900 C   0  0  0  0  0  0  0  0  0  0  0  0
  -28.1341   12.5575  -25.9222 C   0  0  0  0  0  0  0  0  0  0  0  0
  -28.3386   11.9053  -24.6546 N   0  0  0  0  0  0  0  0  0  0  0  0
  -28.4490   10.4931  -24.7131 C   0  0  0  0  0  0  0  0  0  0  0  0
  -29.3554   12.5477  -23.8854 C   0  0  0  0  0  0  0  0  0  0  0  0
  -26.6847   12.5905  -26.3515 C   0  0  0  0  0  0  0  0  0  0  0  0
  -25.9175   13.7164  -25.7560 C   0  0  0  0  0  0  0  0  0  0  0  0
  -25.7130   17.2187  -26.3847 C   0  0  0  0  0  0  0  0  0  0  0  0
  -25.0287   18.3663  -26.0119 C   0  0  0  0  0  0  0  0  0  0  0  0
  -24.4864   18.4747  -24.7485 C   0  0  0  0  0  0  0  0  0  0  0  0
  -23.7725   19.5801  -24.2568 N   0  0  0  0  0  0  0  0  0  0  0  0
  -23.1830   20.6173  -25.0084 C   0  0  0  0  0  0  0  0  0  0  0  0
  -22.3229   21.4677  -24.4846 N   0  0  0  0  0  0  0  0  0  0  0  0
  -21.7504   22.4633  -25.1811 C   0  0  0  0  0  0  0  0  0  0  0  0
  -22.0914   22.5893  -26.5162 C   0  0  0  0  0  0  0  0  0  0  0  0
  -21.3702   23.8628  -27.4411 Cl  0  0  0  0  0  0  0  0  0  0  0  0
  -23.0027   21.7102  -27.1245 C   0  0  0  0  0  0  0  0  0  0  0  0
  -23.3101   21.8881  -28.4838 N   0  0  0  0  0  0  0  0  0  0  0  0
  -24.1882   21.1163  -29.2571 C   0  0  0  0  0  0  0  0  0  0  0  0
  -25.5354   21.0081  -29.0244 C   0  0  0  0  0  0  0  0  0  0  0  0
  -26.3665   20.2302  -29.8200 C   0  0  0  0  0  0  0  0  0  0  0  0
  -25.8385   19.5402  -30.8785 C   0  0  0  0  0  0  0  0  0  0  0  0
  -24.4804   19.6416  -31.1232 C   0  0  0  0  0  0  0  0  0  0  0  0
  -23.6688   20.4048  -30.3415 C   0  0  0  0  0  0  0  0  0  0  0  0
  -21.9433   20.4859  -30.7154 P   0  0  0  0  0  5  0  0  0  0  0  0
  -21.3421   18.8113  -31.0538 C   0  0  0  0  0  0  0  0  0  0  0  0
  -21.6572   21.5657  -32.1395 C   0  0  0  0  0  0  0  0  0  0  0  0
  -21.1410   21.0515  -29.5655 O   0  0  0  0  0  0  0  0  0  0  0  0
  -23.4951   20.7707  -26.3229 N   0  0  0  0  0  0  0  0  0  0  0  0
  1  2  1  0
  2  3  1  0
  3  4  2  0
  4  5  1  0
  5  6  1  0
  6  7  1  0
  7  8  1  0
  8  9  1  0
  9 10  1  0
 10 11  1  0
 10 12  1  0
  9 13  1  0
 13 14  1  0
  5 15  2  0
 15 16  1  0
 16 17  2  0
 17 18  1  0
 18 19  1  0
 19 20  2  0
 20 21  1  0
 21 22  2  0
 22 23  1  0
 22 24  1  0
 24 25  1  0
 25 26  1  0
 26 27  2  0
 27 28  1  0
 28 29  2  0
 29 30  1  0
 30 31  2  0
 31 32  1  0
 32 33  1  0
 32 34  1  0
 32 35  2  0
 24 36  2  0
 17  3  1  0
 36 19  1  0
 14  6  1  0
 31 26  1  0
M  END
$$$$
