
     RDKit          3D

 31 34  0  0  0  0  0  0  0  0999 V2000
  -19.0412   39.9904  -24.6524 O   0  0  0  0  0  0  0  0  0  0  0  0
  -19.4048   39.4106  -23.4545 C   0  0  0  0  0  0  0  0  0  0  0  0
  -18.5001   39.8406  -22.2951 C   0  0  1  0  0  0  0  0  0  0  0  0
  -18.6261   41.1969  -22.1784 O   0  0  0  0  0  0  0  0  0  0  0  0
  -18.0701   41.6825  -21.0188 C   0  0  1  0  0  0  0  0  0  0  0  0
  -17.8701   43.1321  -21.0074 C   0  0  0  0  0  0  0  0  0  0  0  0
  -18.9716   43.9530  -21.2199 C   0  0  0  0  0  0  0  0  0  0  0  0
  -18.8624   45.3147  -21.2248 C   0  0  0  0  0  0  0  0  0  0  0  0
  -17.5950   45.8698  -21.0073 C   0  0  0  0  0  0  0  0  0  0  0  0
  -17.5422   47.6181  -21.0426 Cl  0  0  0  0  0  0  0  0  0  0  0  0
  -16.4947   45.1053  -20.7957 C   0  0  0  0  0  0  0  0  0  0  0  0
  -15.1611   45.6881  -20.5564 C   0  0  0  0  0  0  0  0  0  0  0  0
  -14.3428   44.9889  -19.5710 C   0  0  0  0  0  0  0  0  0  0  0  0
  -14.6755   45.1210  -18.2418 C   0  0  0  0  0  0  0  0  0  0  0  0
  -13.9519   44.4688  -17.2430 C   0  0  0  0  0  0  0  0  0  0  0  0
  -12.8899   43.6816  -17.5895 C   0  0  0  0  0  0  0  0  0  0  0  0
  -12.1468   43.0209  -16.6559 O   0  0  0  0  0  0  0  0  0  0  0  0
  -12.3531   42.8923  -15.2945 C   0  0  1  0  0  0  0  0  0  0  0  0
  -12.1498   41.4729  -14.7943 C   0  0  0  0  0  0  0  0  0  0  0  0
  -10.6632   41.4694  -14.5248 C   0  0  0  0  0  0  0  0  0  0  0  0
  -10.2636   42.7475  -14.2672 O   0  0  0  0  0  0  0  0  0  0  0  0
  -11.2999   43.6206  -14.4896 C   0  0  0  0  0  0  0  0  0  0  0  0
  -12.5659   43.5561  -18.9220 C   0  0  0  0  0  0  0  0  0  0  0  0
  -13.2843   44.2047  -19.9291 C   0  0  0  0  0  0  0  0  0  0  0  0
  -16.6541   43.7156  -20.7995 C   0  0  0  0  0  0  0  0  0  0  0  0
  -19.0010   41.2344  -19.8818 C   0  0  2  0  0  0  0  0  0  0  0  0
  -18.6383   41.8203  -18.6864 O   0  0  0  0  0  0  0  0  0  0  0  0
  -18.8721   39.7442  -19.8019 C   0  0  1  0  0  0  0  0  0  0  0  0
  -19.8928   39.2368  -18.9687 O   0  0  0  0  0  0  0  0  0  0  0  0
  -18.8610   39.0376  -21.1047 C   0  0  2  0  0  0  0  0  0  0  0  0
  -17.9154   37.9884  -21.0014 O   0  0  0  0  0  0  0  0  0  0  0  0
  1  2  1  0
  3  2  1  6
  3  4  1  0
  4  5  1  0
  5  6  1  6
  6  7  2  0
  7  8  1  0
  8  9  2  0
  9 10  1  0
  9 11  1  0
 11 12  1  0
 12 13  1  0
 13 14  2  0
 14 15  1  0
 15 16  2  0
 16 17  1  0
 18 17  1  6
 18 19  1  0
 19 20  1  0
 20 21  1  0
 21 22  1  0
 16 23  1  0
 23 24  2  0
 11 25  2  0
  5 26  1  0
 26 27  1  1
 26 28  1  0
 28 29  1  1
 28 30  1  0
 30 31  1  1
 30  3  1  0
 25  6  1  0
 24 13  1  0
 22 18  1  0
M  END
$$$$
