
     RDKit          3D

 28 31  0  0  0  0  0  0  0  0999 V2000
  -19.6988    3.9355  -31.8419 Cl  0  0  0  0  0  0  0  0  0  0  0  0
  -19.6331    2.4264  -32.7427 C   0  0  0  0  0  0  0  0  0  0  0  0
  -19.8953    2.5113  -34.0976 C   0  0  0  0  0  0  0  0  0  0  0  0
  -19.8527    1.3416  -34.8566 C   0  0  0  0  0  0  0  0  0  0  0  0
  -19.5512    0.1588  -34.2194 C   0  0  0  0  0  0  0  0  0  0  0  0
  -19.2858    0.0447  -32.8734 C   0  0  0  0  0  0  0  0  0  0  0  0
  -18.9837   -1.2085  -32.2422 N   0  0  0  0  0  0  0  0  0  0  0  0
  -19.8850   -2.0438  -31.7019 N   0  0  0  0  0  0  0  0  0  0  0  0
  -19.2828   -3.0989  -31.1881 N   0  0  0  0  0  0  0  0  0  0  0  0
  -17.9958   -2.9293  -31.4050 N   0  0  0  0  0  0  0  0  0  0  0  0
  -17.7805   -1.7474  -32.0676 C   0  0  0  0  0  0  0  0  0  0  0  0
  -16.5238   -1.2460  -32.4863 N   0  0  0  0  0  0  0  0  0  0  0  0
  -15.2591   -1.8873  -32.0922 C   0  0  0  0  0  0  0  0  0  0  0  0
  -14.4793   -2.0428  -33.3197 C   0  0  0  0  0  0  0  0  0  0  0  0
  -15.1154   -2.5572  -34.4703 C   0  0  0  0  0  0  0  0  0  0  0  0
  -14.4385   -2.8034  -35.6214 C   0  0  0  0  0  0  0  0  0  0  0  0
  -13.0851   -2.5415  -35.6564 C   0  0  0  0  0  0  0  0  0  0  0  0
  -12.4285   -2.0417  -34.5624 C   0  0  0  0  0  0  0  0  0  0  0  0
  -13.1466   -1.7917  -33.3883 C   0  0  0  0  0  0  0  0  0  0  0  0
  -12.4293   -1.2880  -32.3276 O   0  0  0  0  0  0  0  0  0  0  0  0
  -12.2761    0.0807  -32.0925 C   0  0  0  0  0  0  0  0  0  0  0  0
  -12.6845    1.0075  -33.0575 C   0  0  0  0  0  0  0  0  0  0  0  0
  -12.5367    2.3554  -32.8506 C   0  0  0  0  0  0  0  0  0  0  0  0
  -11.9710    2.7829  -31.6565 C   0  0  0  0  0  0  0  0  0  0  0  0
  -11.5738    1.8630  -30.7144 C   0  0  0  0  0  0  0  0  0  0  0  0
  -11.7339    0.5438  -30.9521 N   0  0  0  0  0  0  0  0  0  0  0  0
  -19.3306    1.2139  -32.1262 C   0  0  0  0  0  0  0  0  0  0  0  0
  -19.0165    1.1918  -30.4100 Cl  0  0  0  0  0  0  0  0  0  0  0  0
  1  2  1  0
  2  3  2  0
  3  4  1  0
  4  5  2  0
  5  6  1  0
  6  7  1  0
  7  8  1  0
  8  9  2  0
  9 10  1  0
 10 11  2  0
 11 12  1  0
 12 13  1  0
 13 14  1  0
 14 15  2  0
 15 16  1  0
 16 17  2  0
 17 18  1  0
 18 19  2  0
 19 20  1  0
 20 21  1  0
 21 22  2  0
 22 23  1  0
 23 24  2  0
 24 25  1  0
 25 26  2  0
  6 27  2  0
 27 28  1  0
 27  2  1  0
 11  7  1  0
 19 14  1  0
 26 21  1  0
M  END
$$$$
