
     RDKit          3D

 46 53  0  0  0  0  0  0  0  0999 V2000
  -32.8220    6.2174  -21.7797 C   0  0  0  0  0  0  0  0  0  0  0  0
  -31.9578    5.1555  -21.7420 C   0  0  0  0  0  0  0  0  0  0  0  0
  -30.9985    5.0535  -22.7313 C   0  0  0  0  0  0  0  0  0  0  0  0
  -30.8973    5.9712  -23.7261 C   0  0  0  0  0  0  0  0  0  0  0  0
  -29.9111    5.8874  -24.8044 C   0  0  0  0  0  0  0  0  0  0  0  0
  -30.2609    6.5879  -26.0138 N   0  0  0  0  0  0  0  0  0  0  0  0
  -30.1979    7.8875  -26.3192 C   0  0  0  0  0  0  0  0  0  0  0  0
  -29.6275    9.0035  -25.5765 C   0  0  0  0  0  0  0  0  0  0  0  0
  -28.2398    8.9277  -25.3527 C   0  0  0  0  0  0  0  0  0  0  0  0
  -27.5664    9.9119  -24.6621 C   0  0  0  0  0  0  0  0  0  0  0  0
  -28.2465   11.0134  -24.1651 C   0  0  0  0  0  0  0  0  0  0  0  0
  -27.6718   12.0333  -23.4734 O   0  0  0  0  0  0  0  0  0  0  0  0
  -26.6200   11.9839  -22.5792 C   0  0  0  0  0  0  0  0  0  0  0  0
  -26.3022   13.3126  -21.9231 C   0  0  2  0  0  0  0  0  0  0  0  0
  -24.8553   13.2117  -21.5105 C   0  0  0  0  0  0  0  0  0  0  0  0
  -24.4731   14.5017  -20.7938 C   0  0  0  0  0  0  0  0  0  0  0  0
  -23.3652   15.2684  -21.4048 C   0  0  0  0  0  0  0  0  0  0  0  0
  -22.2943   14.3160  -21.6837 N   0  0  0  0  0  0  0  0  0  0  0  0
  -22.7500   13.6277  -22.8781 C   0  0  0  0  0  0  0  0  0  0  0  0
  -23.9079   12.7526  -22.5356 C   0  0  0  0  0  0  0  0  0  0  0  0
  -27.2639   13.6954  -20.9274 N   0  0  0  0  0  0  0  0  0  0  0  0
  -27.5724   12.9379  -19.8467 C   0  0  0  0  0  0  0  0  0  0  0  0
  -27.1578   11.6345  -19.3635 C   0  0  0  0  0  0  0  0  0  0  0  0
  -25.8643   11.2657  -19.0553 C   0  0  0  0  0  0  0  0  0  0  0  0
  -25.5330    9.9923  -18.6497 C   0  0  0  0  0  0  0  0  0  0  0  0
  -26.5215    9.0453  -18.5447 C   0  0  0  0  0  0  0  0  0  0  0  0
  -27.8334    9.3651  -18.8424 C   0  0  0  0  0  0  0  0  0  0  0  0
  -28.1316   10.6517  -19.2463 C   0  0  0  0  0  0  0  0  0  0  0  0
  -28.5139   13.6571  -19.1577 N   0  0  0  0  0  0  0  0  0  0  0  0
  -28.7680   14.7934  -19.7869 C   0  0  0  0  0  0  0  0  0  0  0  0
  -29.6502   15.8420  -19.4876 C   0  0  0  0  0  0  0  0  0  0  0  0
  -29.7642   16.9415  -20.3044 C   0  0  0  0  0  0  0  0  0  0  0  0
  -28.9937   17.0085  -21.4383 C   0  0  0  0  0  0  0  0  0  0  0  0
  -28.1210   15.9648  -21.7280 C   0  0  0  0  0  0  0  0  0  0  0  0
  -27.9797   14.8472  -20.9306 C   0  0  0  0  0  0  0  0  0  0  0  0
  -29.5965   11.0434  -24.4077 C   0  0  0  0  0  0  0  0  0  0  0  0
  -30.3047   10.0649  -25.1016 C   0  0  0  0  0  0  0  0  0  0  0  0
  -30.7363    8.0468  -27.5823 N   0  0  0  0  0  0  0  0  0  0  0  0
  -31.1249    6.8735  -28.0585 C   0  0  0  0  0  0  0  0  0  0  0  0
  -31.7192    6.4407  -29.2503 C   0  0  0  0  0  0  0  0  0  0  0  0
  -32.0180    5.1148  -29.4741 C   0  0  0  0  0  0  0  0  0  0  0  0
  -31.7228    4.1810  -28.4928 C   0  0  0  0  0  0  0  0  0  0  0  0
  -31.1328    4.6415  -27.3199 C   0  0  0  0  0  0  0  0  0  0  0  0
  -30.8312    5.9558  -27.0858 C   0  0  0  0  0  0  0  0  0  0  0  0
  -31.7706    7.0366  -23.7559 C   0  0  0  0  0  0  0  0  0  0  0  0
  -32.7253    7.1472  -22.7795 C   0  0  0  0  0  0  0  0  0  0  0  0
  1  2  2  0
  2  3  1  0
  3  4  2  0
  4  5  1  0
  5  6  1  0
  6  7  1  0
  7  8  1  0
  8  9  2  0
  9 10  1  0
 10 11  2  0
 11 12  1  0
 12 13  1  0
 14 13  1  1
 14 15  1  0
 15 16  1  0
 16 17  1  0
 17 18  1  0
 18 19  1  0
 19 20  1  0
 14 21  1  0
 21 22  1  0
 22 23  1  0
 23 24  2  0
 24 25  1  0
 25 26  2  0
 26 27  1  0
 27 28  2  0
 22 29  2  0
 29 30  1  0
 30 31  2  0
 31 32  1  0
 32 33  2  0
 33 34  1  0
 34 35  2  0
 11 36  1  0
 36 37  2  0
  7 38  2  0
 38 39  1  0
 39 40  2  0
 40 41  1  0
 41 42  2  0
 42 43  1  0
 43 44  2  0
  4 45  1  0
 45 46  2  0
 46  1  1  0
 44  6  1  0
 37  8  1  0
 44 39  1  0
 20 15  1  0
 35 21  1  0
 28 23  1  0
 35 30  1  0
M  END
$$$$
