
     RDKit          3D

 25 24  0  0  0  0  0  0  0  0999 V2000
  -17.6421   36.2676  -22.7267 C   0  0  0  0  0  0  0  0  0  0  0  0
  -19.0392   36.3740  -23.2308 C   0  0  1  0  0  0  0  0  0  0  0  0
  -19.7094   35.0168  -22.9702 C   0  0  0  0  0  0  0  0  0  0  0  0
  -21.0444   35.2072  -22.4516 N   0  0  0  0  0  0  0  0  0  0  0  0
  -21.8901   35.6480  -23.5223 C   0  0  0  0  0  0  0  0  0  0  0  0
  -22.1454   37.1335  -23.4594 C   0  0  0  0  0  0  0  0  0  0  0  0
  -20.8488   37.9211  -23.6125 C   0  0  0  0  0  0  0  0  0  0  0  0
  -19.8002   37.4579  -22.8207 N   0  0  0  0  0  0  0  0  0  0  0  0
  -19.3417   38.3779  -21.4586 S   0  0  0  0  0  6  0  0  0  0  0  0
  -18.2629   37.6508  -20.7327 O   0  0  0  0  0  0  0  0  0  0  0  0
  -20.6416   38.4746  -20.6757 O   0  0  0  0  0  0  0  0  0  0  0  0
  -18.7912   39.9178  -22.0614 C   0  0  0  0  0  0  0  0  0  0  0  0
  -18.6826   40.1525  -23.4299 C   0  0  0  0  0  0  0  0  0  0  0  0
  -18.2389   41.3585  -23.8719 C   0  0  0  0  0  0  0  0  0  0  0  0
  -17.8817   42.3835  -23.0337 C   0  0  0  0  0  0  0  0  0  0  0  0
  -17.9911   42.1422  -21.6761 C   0  0  0  0  0  0  0  0  0  0  0  0
  -17.6402   43.1413  -20.7732 C   0  0  0  0  0  0  0  0  0  0  0  0
  -17.7376   42.9207  -19.4552 N   0  0  0  0  0  0  0  0  0  0  0  0
  -18.1694   41.7489  -18.9663 C   0  0  0  0  0  0  0  0  0  0  0  0
  -18.5337   40.7151  -19.8164 C   0  0  0  0  0  0  0  0  0  0  0  0
  -18.9591   39.5390  -19.3126 F   0  0  0  0  0  0  0  0  0  0  0  0
  -18.4443   40.9141  -21.1663 C   0  0  0  0  0  0  0  0  0  0  0  0
  -19.1519   39.1426  -22.2118 Cl  0  0  0  0  0  0  0  0  0  0  0  0
  -19.5440   38.4765  -22.0874 O   0  0  0  0  0  0  0  0  0  0  0  0
  -19.5464   38.4751  -22.0842 O   0  0  0  0  0  0  0  0  0  0  0  0
  2  1  1  1
  2  3  1  0
  3  4  1  0
  4  5  1  0
  5  6  1  0
  6  7  1  0
  7  8  1  0
  8  9  1  0
  9 10  2  0
  9 11  2  0
  9 12  1  0
 12 13  2  0
 13 14  1  0
 14 15  2  0
 15 16  1  0
 16 17  2  0
 17 18  1  0
 18 19  2  0
 19 20  1  0
 20 21  1  0
 20 22  2  0
  8  2  1  0
 22 12  1  0
 22 16  1  0
M  END
$$$$
