
     RDKit          3D

 18 19  0  0  0  0  0  0  0  0999 V2000
  -17.0861   -0.5849  -29.9649 C   0  0  0  0  0  0  0  0  0  0  0  0
  -16.5928    0.6195  -30.8078 C   0  0  0  0  0  0  0  0  0  0  0  0
  -15.2635    0.2231  -31.4655 C   0  0  0  0  0  0  0  0  0  0  0  0
  -15.3476    0.0572  -32.8757 N   0  0  0  0  0  0  0  0  0  0  0  0
  -14.7698    1.3237  -33.4452 C   0  0  0  0  0  0  0  0  0  0  0  0
  -13.4878    1.7048  -32.8307 C   0  0  0  0  0  0  0  0  0  0  0  0
  -13.4432    3.2428  -32.8244 C   0  0  0  0  0  0  0  0  0  0  0  0
  -14.4593   -0.9174  -33.4338 C   0  0  0  0  0  0  0  0  0  0  0  0
  -13.0203   -0.4064  -33.3713 C   0  0  0  0  0  0  0  0  0  0  0  0
  -12.1689   -1.6390  -33.1418 C   0  0  0  0  0  0  0  0  0  0  0  0
  -12.6293   -2.7121  -34.0591 C   0  0  0  0  0  0  0  0  0  0  0  0
  -11.8054   -3.8507  -34.0655 C   0  0  0  0  0  0  0  0  0  0  0  0
  -12.1386   -4.8951  -34.8695 C   0  0  0  0  0  0  0  0  0  0  0  0
  -13.2487   -4.8712  -35.6709 C   0  0  0  0  0  0  0  0  0  0  0  0
  -14.0443   -3.7330  -35.6426 C   0  0  0  0  0  0  0  0  0  0  0  0
  -15.1830   -3.6288  -36.4261 O   0  0  0  0  0  0  0  0  0  0  0  0
  -13.7512   -2.6578  -34.8497 C   0  0  0  0  0  0  0  0  0  0  0  0
  -14.6372   -1.4170  -34.8075 C   0  0  0  0  0  0  0  0  0  0  0  0
  1  2  1  0
  2  3  1  0
  3  4  1  0
  4  5  1  0
  5  6  1  0
  6  7  1  0
  4  8  1  0
  8  9  1  0
  9 10  1  0
 10 11  1  0
 11 12  2  0
 12 13  1  0
 13 14  2  0
 14 15  1  0
 15 16  1  0
 15 17  2  0
 17 18  1  0
 18  8  1  0
 17 11  1  0
M  END
$$$$
