
     RDKit          3D

 25 28  0  0  0  0  0  0  0  0999 V2000
  -19.6250   13.8588  -30.5892 F   0  0  0  0  0  0  0  0  0  0  0  0
  -20.1926   15.0608  -30.3398 C   0  0  0  0  0  0  0  0  0  0  0  0
  -21.3955   15.1245  -29.6387 C   0  0  0  0  0  0  0  0  0  0  0  0
  -21.9583   16.3533  -29.3955 C   0  0  0  0  0  0  0  0  0  0  0  0
  -21.3487   17.5174  -29.8346 C   0  0  0  0  0  0  0  0  0  0  0  0
  -22.0736   19.0775  -29.5157 Cl  0  0  0  0  0  0  0  0  0  0  0  0
  -20.1440   17.4170  -30.5359 C   0  0  0  0  0  0  0  0  0  0  0  0
  -19.5613   16.1969  -30.7912 C   0  0  0  0  0  0  0  0  0  0  0  0
  -18.2938   16.1693  -31.5228 C   0  0  0  0  0  0  0  0  0  0  0  0
  -17.2455   15.4545  -31.0835 N   0  0  0  0  0  0  0  0  0  0  0  0
  -16.0507   15.4347  -31.7546 C   0  0  0  0  0  0  0  0  0  0  0  0
  -14.9826   14.6415  -31.2580 N   0  0  0  0  0  0  0  0  0  0  0  0
  -14.9837   13.9464  -30.0242 C   0  0  0  0  0  0  0  0  0  0  0  0
  -16.0749   14.0836  -29.1585 C   0  0  0  0  0  0  0  0  0  0  0  0
  -16.1431   13.4453  -27.9480 C   0  0  0  0  0  0  0  0  0  0  0  0
  -15.0948   12.6543  -27.6023 N   0  0  0  0  0  0  0  0  0  0  0  0
  -14.0344   12.4926  -28.3947 C   0  0  0  0  0  0  0  0  0  0  0  0
  -13.9491   13.1264  -29.6127 C   0  0  0  0  0  0  0  0  0  0  0  0
  -15.8896   16.1558  -32.9140 C   0  0  0  0  0  0  0  0  0  0  0  0
  -14.7628   16.1683  -33.6199 N   0  0  0  0  0  0  0  0  0  0  0  0
  -14.6765   16.8841  -34.7525 C   0  0  0  0  0  0  0  0  0  0  0  0
  -15.7469   17.6208  -35.2114 C   0  0  0  0  0  0  0  0  0  0  0  0
  -16.8766   17.6045  -34.4993 N   0  0  0  0  0  0  0  0  0  0  0  0
  -16.9761   16.8990  -33.3749 C   0  0  0  0  0  0  0  0  0  0  0  0
  -18.1152   16.8631  -32.6528 N   0  0  0  0  0  0  0  0  0  0  0  0
  1  2  1  0
  2  3  2  0
  3  4  1  0
  4  5  2  0
  5  6  1  0
  5  7  1  0
  7  8  2  0
  8  9  1  0
  9 10  2  0
 10 11  1  0
 11 12  1  0
 12 13  1  0
 13 14  2  0
 14 15  1  0
 15 16  2  0
 16 17  1  0
 17 18  2  0
 11 19  2  0
 19 20  1  0
 20 21  2  0
 21 22  1  0
 22 23  2  0
 23 24  1  0
 24 25  2  0
  8  2  1  0
 25  9  1  0
 18 13  1  0
 24 19  1  0
M  END
$$$$
