
     RDKit          3D

 33 37  0  0  0  0  0  0  0  0999 V2000
  -19.9493   25.4912  -40.5607 C   0  0  0  0  0  0  0  0  0  0  0  0
  -19.9739   23.9937  -40.6099 C   0  0  0  0  0  0  0  0  0  0  0  0
  -21.1848   23.3030  -40.2212 C   0  0  0  0  0  0  0  0  0  0  0  0
  -22.0167   23.7190  -39.0823 C   0  0  0  0  0  0  0  0  0  0  0  0
  -21.6490   24.5536  -38.1543 C   0  0  0  0  0  0  0  0  0  0  0  0
  -22.4725   24.9950  -37.0014 C   0  0  0  0  0  0  0  0  0  0  0  0
  -23.9085   24.6021  -37.2482 C   0  0  2  0  0  0  0  0  0  0  0  0
  -24.8434   25.0155  -36.1680 C   0  0  1  0  0  0  0  0  0  0  0  0
  -24.3938   24.7159  -34.7691 C   0  0  0  0  0  0  0  0  0  0  0  0
  -24.9723   26.5366  -36.2558 C   0  0  0  0  0  0  0  0  0  0  0  0
  -26.3347   26.9643  -36.7343 C   0  0  0  0  0  0  0  0  0  0  0  0
  -27.3585   26.4499  -35.7714 C   0  0  0  0  0  0  0  0  0  0  0  0
  -27.1760   27.0024  -34.5105 O   0  0  0  0  0  0  0  0  0  0  0  0
  -27.3431   24.9416  -35.7067 C   0  0  0  0  0  0  0  0  0  0  0  0
  -28.5923   24.4837  -36.4864 C   0  0  0  0  0  0  0  0  0  0  0  0
  -27.5192   24.4058  -34.3185 C   0  0  0  0  0  0  0  0  0  0  0  0
  -26.1822   24.4234  -36.4648 C   0  0  2  0  0  0  0  0  0  0  0  0
  -26.1135   22.9066  -36.4615 C   0  0  0  0  0  0  0  0  0  0  0  0
  -25.3056   22.5429  -37.6991 C   0  0  0  0  0  0  0  0  0  0  0  0
  -23.9334   23.1561  -37.6570 C   0  0  2  0  0  0  0  0  0  0  0  0
  -23.1277   22.2930  -36.7233 C   0  0  0  0  0  0  0  0  0  0  0  0
  -23.3725   23.0962  -39.0676 C   0  0  1  0  0  0  0  0  0  0  0  0
  -24.1938   23.9938  -39.9977 C   0  0  0  0  0  0  0  0  0  0  0  0
  -23.4347   21.7087  -39.6074 C   0  0  0  0  0  0  0  0  0  0  0  0
  -22.3601   21.2335  -40.4976 C   0  0  0  0  0  0  0  0  0  0  0  0
  -21.0274   21.8159  -40.1562 C   0  0  2  0  0  0  0  0  0  0  0  0
  -20.5472   21.2603  -38.8942 C   0  0  0  0  0  0  0  0  0  0  0  0
  -20.4408   21.7976  -37.7906 O   0  0  0  0  0  0  0  0  0  0  0  0
  -20.1447   19.9076  -38.9426 O   0  0  0  0  0  0  0  0  0  0  0  0
  -19.9628   21.4687  -41.1898 C   0  0  0  0  0  0  0  0  0  0  0  0
  -18.6502   21.9214  -40.5854 C   0  0  0  0  0  0  0  0  0  0  0  0
  -18.6637   23.3620  -40.1238 C   0  0  1  0  0  0  0  0  0  0  0  0
  -17.5132   24.0537  -40.8769 C   0  0  0  0  0  0  0  0  0  0  0  0
  1  2  1  0
  2  3  1  0
  3  4  1  0
  4  5  2  0
  5  6  1  0
  7  6  1  1
  7  8  1  0
  8  9  1  1
  8 10  1  0
 10 11  1  0
 11 12  1  0
 12 13  1  0
 12 14  1  0
 14 15  1  0
 14 16  1  0
 14 17  1  0
 17 18  1  1
 18 19  1  0
 19 20  1  0
 20 21  1  1
 20 22  1  0
 22 23  1  6
 22 24  1  0
 24 25  1  0
 25 26  1  0
 26 27  1  1
 27 28  2  0
 27 29  1  0
 26 30  1  0
 30 31  1  0
 31 32  1  0
 32 33  1  6
 32  2  1  0
 26  3  1  0
 22  4  1  0
 20  7  1  0
 17  8  1  0
M  END
$$$$
