
     RDKit          3D

 26 28  0  0  0  0  0  0  0  0999 V2000
  -24.9518   21.3224  -30.8912 C   0  0  0  0  0  0  0  0  0  0  0  0
  -24.0837   21.2709  -29.7200 C   0  0  0  0  0  0  0  0  0  0  0  0
  -22.7562   21.1282  -29.6979 N   0  0  0  0  0  0  0  0  0  0  0  0
  -22.3168   21.1312  -28.4387 C   0  0  0  0  0  0  0  0  0  0  0  0
  -23.4737   21.2893  -27.6292 C   0  0  0  0  0  0  0  0  0  0  0  0
  -23.2906   21.3451  -26.1783 C   0  0  0  0  0  0  0  0  0  0  0  0
  -22.6339   22.2968  -25.4836 C   0  0  0  0  0  0  0  0  0  0  0  0
  -22.5211   22.2309  -24.0988 C   0  0  0  0  0  0  0  0  0  0  0  0
  -23.0734   21.2064  -23.4530 N   0  0  0  0  0  0  0  0  0  0  0  0
  -23.7341   20.2417  -24.1122 C   0  0  0  0  0  0  0  0  0  0  0  0
  -24.3136   19.1259  -23.4054 N   0  0  0  0  0  0  0  0  0  0  0  0
  -24.5503   17.9310  -24.1340 C   0  0  0  0  0  0  0  0  0  0  0  0
  -25.1746   17.9634  -25.3890 C   0  0  0  0  0  0  0  0  0  0  0  0
  -25.4062   16.7995  -26.0802 C   0  0  0  0  0  0  0  0  0  0  0  0
  -25.0513   15.5571  -25.6023 C   0  0  0  0  0  0  0  0  0  0  0  0
  -25.3804   14.0863  -26.4853 S   0  0  0  0  0  6  0  0  0  0  0  0
  -27.0819   13.6522  -26.2163 C   0  0  0  0  0  0  0  0  0  0  0  0
  -25.1222   14.2862  -27.9662 O   0  0  0  0  0  0  0  0  0  0  0  0
  -24.4619   13.0064  -26.0305 O   0  0  0  0  0  0  0  0  0  0  0  0
  -24.4347   15.5150  -24.3662 C   0  0  0  0  0  0  0  0  0  0  0  0
  -24.2006   16.6849  -23.6679 C   0  0  0  0  0  0  0  0  0  0  0  0
  -23.8200   20.3400  -25.4226 N   0  0  0  0  0  0  0  0  0  0  0  0
  -24.5234   21.3705  -28.4220 N   0  0  0  0  0  0  0  0  0  0  0  0
  -25.8810   21.5409  -28.0735 C   0  0  0  0  0  0  0  0  0  0  0  0
  -26.4549   22.8924  -28.3837 C   0  0  0  0  0  0  0  0  0  0  0  0
  -26.8486   20.4635  -28.3632 C   0  0  0  0  0  0  0  0  0  0  0  0
  1  2  1  0
  2  3  2  0
  3  4  1  0
  4  5  2  0
  5  6  1  0
  6  7  2  0
  7  8  1  0
  8  9  2  0
  9 10  1  0
 10 11  1  0
 11 12  1  0
 12 13  2  0
 13 14  1  0
 14 15  2  0
 15 16  1  0
 16 17  1  0
 16 18  2  0
 16 19  2  0
 15 20  1  0
 20 21  2  0
 10 22  2  0
  5 23  1  0
 23 24  1  0
 24 25  1  0
 24 26  1  0
 23  2  1  0
 22  6  1  0
 21 12  1  0
M  END
$$$$
