
     RDKit          3D

 55 59  0  0  0  0  0  0  0  0999 V2000
  -30.8512   26.3029  -36.2818 C   0  0  0  0  0  0  0  0  0  0  0  0
  -30.3045   25.6044  -37.3647 O   0  0  0  0  0  0  0  0  0  0  0  0
  -29.0979   24.9403  -37.3480 C   0  0  0  0  0  0  0  0  0  0  0  0
  -28.2971   24.8976  -36.2433 C   0  0  0  0  0  0  0  0  0  0  0  0
  -27.1000   24.2219  -36.2740 C   0  0  0  0  0  0  0  0  0  0  0  0
  -26.6574   23.5641  -37.4072 C   0  0  0  0  0  0  0  0  0  0  0  0
  -25.4554   22.8895  -37.4291 C   0  0  0  0  0  0  0  0  0  0  0  0
  -25.0044   22.2266  -38.5653 C   0  0  0  0  0  0  0  0  0  0  0  0
  -23.4691   21.4017  -38.4670 S   0  0  0  0  0  6  0  0  0  0  0  0
  -23.2330   20.8120  -37.1061 O   0  0  0  0  0  0  0  0  0  0  0  0
  -23.5607   20.2362  -39.4431 O   0  0  0  0  0  0  0  0  0  0  0  0
  -22.1415   22.4174  -38.8298 N   0  0  0  0  0  0  0  0  0  0  0  0
  -21.5179   21.9479  -40.0680 C   0  0  2  0  0  0  0  0  0  0  0  0
  -20.1047   21.4521  -39.7356 C   0  0  0  0  0  0  0  0  0  0  0  0
  -19.4600   20.9846  -40.9788 C   0  0  0  0  0  0  0  0  0  0  0  0
  -20.0012   21.0607  -42.1075 O   0  0  0  0  0  0  0  0  0  0  0  0
  -18.1579   20.4090  -40.9633 N   0  0  0  0  0  0  0  0  0  0  0  0
  -17.5071   19.9553  -42.1770 C   0  0  2  0  0  0  0  0  0  0  0  0
  -17.4074   18.4500  -42.1525 C   0  0  0  0  0  0  0  0  0  0  0  0
  -16.6344   17.9074  -41.0208 C   0  0  0  0  0  0  0  0  0  0  0  0
  -17.2149   17.5402  -39.8463 C   0  0  0  0  0  0  0  0  0  0  0  0
  -16.4190   17.0291  -38.8189 C   0  0  0  0  0  0  0  0  0  0  0  0
  -15.0671   16.8643  -38.9013 C   0  0  0  0  0  0  0  0  0  0  0  0
  -14.1890   16.3255  -37.8532 C   0  0  0  0  0  0  0  0  0  0  0  0
  -13.4626   17.2127  -37.0309 N   0  0  0  0  0  0  0  0  0  0  0  0
  -12.4974   16.4138  -36.2073 C   0  0  1  0  0  0  0  0  0  0  0  0
  -11.8815   15.2986  -37.0004 C   0  0  0  0  0  0  0  0  0  0  0  0
  -11.3809   17.3588  -35.8445 C   0  0  0  0  0  0  0  0  0  0  0  0
  -11.9250   18.4275  -34.9218 C   0  0  0  0  0  0  0  0  0  0  0  0
  -13.2385   18.9539  -35.3424 C   0  0  0  0  0  0  0  0  0  0  0  0
  -14.1649   17.9683  -36.0338 C   0  0  1  0  0  0  0  0  0  0  0  0
  -15.3459   18.7588  -36.4712 C   0  0  0  0  0  0  0  0  0  0  0  0
  -14.4943   17.2537  -40.1292 C   0  0  0  0  0  0  0  0  0  0  0  0
  -15.2672   17.7588  -41.1505 C   0  0  0  0  0  0  0  0  0  0  0  0
  -16.2184   20.6441  -42.3794 C   0  0  0  0  0  0  0  0  0  0  0  0
  -15.8160   21.4366  -41.4546 O   0  0  0  0  0  0  0  0  0  0  0  0
  -15.3796   20.5169  -43.5028 N   0  0  0  0  0  0  0  0  0  0  0  0
  -15.6800   19.6736  -44.6475 C   0  0  0  0  0  0  0  0  0  0  0  0
  -14.1204   21.2863  -43.5406 C   0  0  0  0  0  0  0  0  0  0  0  0
  -14.2196   22.1385  -44.7873 C   0  0  0  0  0  0  0  0  0  0  0  0
  -12.9352   20.3607  -43.5897 C   0  0  0  0  0  0  0  0  0  0  0  0
  -21.4986   23.0261  -41.0572 C   0  0  0  0  0  0  0  0  0  0  0  0
  -22.0062   22.9216  -42.3289 C   0  0  0  0  0  0  0  0  0  0  0  0
  -21.9784   23.9284  -43.2680 C   0  0  0  0  0  0  0  0  0  0  0  0
  -21.4097   25.1265  -42.9319 C   0  0  0  0  0  0  0  0  0  0  0  0
  -20.8810   25.2910  -41.6620 C   0  0  0  0  0  0  0  0  0  0  0  0
  -20.9257   24.2654  -40.7499 C   0  0  0  0  0  0  0  0  0  0  0  0
  -20.3563   26.5753  -41.5329 O   0  0  0  0  0  0  0  0  0  0  0  0
  -20.8789   27.3338  -42.6167 C   0  0  0  0  0  0  0  0  0  0  0  0
  -21.2008   26.3338  -43.5831 O   0  0  0  0  0  0  0  0  0  0  0  0
  -25.8052   22.2689  -39.6716 C   0  0  0  0  0  0  0  0  0  0  0  0
  -27.0179   22.9448  -39.6620 C   0  0  0  0  0  0  0  0  0  0  0  0
  -27.4580   23.6013  -38.5265 C   0  0  0  0  0  0  0  0  0  0  0  0
  -28.6649   24.2878  -38.4811 C   0  0  0  0  0  0  0  0  0  0  0  0
  -19.4521   21.1994  -39.7583 Cl  0  0  0  0  0  0  0  0  0  0  0  0
  1  2  1  0
  2  3  1  0
  3  4  2  0
  4  5  1  0
  5  6  2  0
  6  7  1  0
  7  8  2  0
  8  9  1  0
  9 10  2  0
  9 11  2  0
  9 12  1  0
 12 13  1  0
 13 14  1  1
 14 15  1  0
 15 16  2  0
 15 17  1  0
 17 18  1  0
 18 19  1  1
 19 20  1  0
 20 21  2  0
 21 22  1  0
 22 23  2  0
 23 24  1  0
 24 25  1  0
 25 26  1  0
 26 27  1  6
 26 28  1  0
 28 29  1  0
 29 30  1  0
 30 31  1  0
 31 32  1  6
 23 33  1  0
 33 34  2  0
 18 35  1  0
 35 36  2  0
 35 37  1  0
 37 38  1  0
 37 39  1  0
 39 40  1  0
 39 41  1  0
 13 42  1  0
 42 43  2  0
 43 44  1  0
 44 45  2  0
 45 46  1  0
 46 47  2  0
 46 48  1  0
 48 49  1  0
 49 50  1  0
  8 51  1  0
 51 52  2  0
 52 53  1  0
 53 54  2  0
 54  3  1  0
 53  6  1  0
 34 20  1  0
 47 42  1  0
 31 25  1  0
 50 45  1  0
M  END
$$$$
