
     RDKit          3D

 22 24  0  0  0  0  0  0  0  0999 V2000
  -23.4659   38.8700  -21.6343 C   0  0  0  0  0  0  0  0  0  0  0  0
  -22.2086   38.9507  -22.2680 O   0  0  0  0  0  0  0  0  0  0  0  0
  -21.2460   39.9014  -21.9499 C   0  0  0  0  0  0  0  0  0  0  0  0
  -21.1885   41.0986  -22.6319 C   0  0  0  0  0  0  0  0  0  0  0  0
  -22.1031   41.3720  -23.6575 O   0  0  0  0  0  0  0  0  0  0  0  0
  -20.2149   42.0081  -22.2781 C   0  0  0  0  0  0  0  0  0  0  0  0
  -19.2961   41.7542  -21.2606 C   0  0  0  0  0  0  0  0  0  0  0  0
  -18.3780   42.6060  -20.9234 O   0  0  0  0  0  0  0  0  0  0  0  0
  -17.4874   42.3845  -19.9521 C   0  0  0  0  0  0  0  0  0  0  0  0
  -16.4907   43.4173  -19.6525 C   0  0  0  0  0  0  0  0  0  0  0  0
  -15.6915   43.3238  -18.5209 C   0  0  0  0  0  0  0  0  0  0  0  0
  -14.7433   44.2680  -18.1987 C   0  0  0  0  0  0  0  0  0  0  0  0
  -14.5774   45.3526  -19.0316 C   0  0  0  0  0  0  0  0  0  0  0  0
  -13.6179   46.3178  -18.7151 O   0  0  0  0  0  0  0  0  0  0  0  0
  -15.3384   45.4838  -20.1500 C   0  0  0  0  0  0  0  0  0  0  0  0
  -16.2877   44.5099  -20.4448 C   0  0  0  0  0  0  0  0  0  0  0  0
  -17.4957   41.2182  -19.2429 C   0  0  0  0  0  0  0  0  0  0  0  0
  -18.4714   40.2717  -19.5759 C   0  0  0  0  0  0  0  0  0  0  0  0
  -18.4724   39.2095  -18.9239 O   0  0  0  0  0  0  0  0  0  0  0  0
  -19.3617   40.5543  -20.5845 C   0  0  0  0  0  0  0  0  0  0  0  0
  -20.3311   39.6350  -20.9282 C   0  0  0  0  0  0  0  0  0  0  0  0
  -20.3677   38.4387  -20.2272 O   0  0  0  0  0  0  0  0  0  0  0  0
  1  2  1  0
  2  3  1  0
  3  4  2  0
  4  5  1  0
  4  6  1  0
  6  7  2  0
  7  8  1  0
  8  9  1  0
  9 10  1  0
 10 11  2  0
 11 12  1  0
 12 13  2  0
 13 14  1  0
 13 15  1  0
 15 16  2  0
  9 17  2  0
 17 18  1  0
 18 19  2  0
 18 20  1  0
 20 21  2  0
 21 22  1  0
 21  3  1  0
 20  7  1  0
 16 10  1  0
M  END
$$$$
