
     RDKit          3D

 16 16  0  0  0  0  0  0  0  0999 V2000
  -25.4259   13.4927  -21.2191 C   0  0  0  0  0  0  0  0  0  0  0  0
  -26.8219   13.9772  -20.9889 C   0  0  0  0  0  0  0  0  0  0  0  0
  -27.0677   15.3223  -21.0772 C   0  0  0  0  0  0  0  0  0  0  0  0
  -28.3438   15.7903  -20.8681 C   0  0  0  0  0  0  0  0  0  0  0  0
  -29.3310   14.8751  -20.5756 C   0  0  0  0  0  0  0  0  0  0  0  0
  -29.0863   13.5208  -20.4862 C   0  0  0  0  0  0  0  0  0  0  0  0
  -30.1218   12.5716  -20.1812 C   0  0  0  0  0  0  0  0  0  0  0  0
  -30.9895   11.7494  -19.9259 C   0  0  0  0  0  0  0  0  0  0  0  0
  -32.0017   10.7818  -19.6027 C   0  0  0  0  0  0  0  0  0  0  0  0
  -33.3274   11.1245  -19.4039 C   0  0  0  0  0  0  0  0  0  0  0  0
  -34.3068   10.2168  -19.0961 C   0  0  0  0  0  0  0  0  0  0  0  0
  -33.9892    8.8886  -18.9712 C   0  0  0  0  0  0  0  0  0  0  0  0
  -32.6879    8.5022  -19.1594 C   0  0  0  0  0  0  0  0  0  0  0  0
  -31.7260    9.4241  -19.4659 C   0  0  0  0  0  0  0  0  0  0  0  0
  -27.8305   13.1092  -20.6969 N   0  0  0  0  0  0  0  0  0  0  0  0
  -30.5058   12.3714  -19.6896 Cl  0  0  0  0  0  0  0  0  0  0  0  0
  1  2  1  0
  2  3  2  0
  3  4  1  0
  4  5  2  0
  5  6  1  0
  6  7  1  0
  7  8  3  0
  8  9  1  0
  9 10  2  0
 10 11  1  0
 11 12  2  0
 12 13  1  0
 13 14  2  0
  6 15  2  0
 15  2  1  0
 14  9  1  0
M  END
$$$$
