
     RDKit          3D

 22 24  0  0  0  0  0  0  0  0999 V2000
  -19.4830   38.0041  -22.0477 Br  0  0  0  0  0  0  0  0  0  0  0  0
  -16.2913   35.2645  -19.8003 C   0  0  0  0  0  0  0  0  0  0  0  0
  -16.9478   36.3980  -20.2829 O   0  0  0  0  0  0  0  0  0  0  0  0
  -18.0929   36.3368  -21.0657 C   0  0  0  0  0  0  0  0  0  0  0  0
  -18.6760   35.1477  -21.4307 C   0  0  0  0  0  0  0  0  0  0  0  0
  -19.8330   35.1163  -22.2224 C   0  0  0  0  0  0  0  0  0  0  0  0
  -20.4249   36.2794  -22.6617 C   0  0  0  0  0  0  0  0  0  0  0  0
  -19.8169   37.4530  -22.2797 C   0  0  0  0  0  0  0  0  0  0  0  0
  -18.6851   37.5227  -21.5059 C   0  0  0  0  0  0  0  0  0  0  0  0
  -18.2895   38.8313  -21.2715 O   0  0  0  0  0  0  0  0  0  0  0  0
  -19.4108   39.6777  -21.6116 C   0  0  1  0  0  0  0  0  0  0  0  0
  -18.8200   40.9250  -22.1733 C   0  0  0  0  0  0  0  0  0  0  0  0
  -19.7032   41.4935  -23.2674 C   0  0  1  0  0  0  0  0  0  0  0  0
  -19.0735   42.6695  -23.7547 O   0  0  0  0  0  0  0  0  0  0  0  0
  -19.6956   40.4584  -24.3415 C   0  0  0  0  0  0  0  0  0  0  0  0
  -19.9299   39.2066  -23.9867 C   0  0  0  0  0  0  0  0  0  0  0  0
  -20.1874   38.8739  -22.5814 C   0  0  1  0  0  0  0  0  0  0  0  0
  -21.6898   38.9240  -22.3315 C   0  0  0  0  0  0  0  0  0  0  0  0
  -22.3624   38.2848  -23.5237 C   0  0  0  0  0  0  0  0  0  0  0  0
  -22.6930   36.9123  -23.2683 N   0  0  0  0  0  0  0  0  0  0  0  0
  -23.9283   36.4767  -23.8465 C   0  0  0  0  0  0  0  0  0  0  0  0
  -21.6206   35.9733  -23.4608 C   0  0  0  0  0  0  0  0  0  0  0  0
  2  3  1  0
  3  4  1  0
  4  5  2  0
  5  6  1  0
  6  7  2  0
  7  8  1  0
  8  9  2  0
  9 10  1  0
 10 11  1  0
 11 12  1  6
 12 13  1  0
 13 14  1  6
 13 15  1  0
 15 16  2  0
 16 17  1  0
 17 18  1  1
 18 19  1  0
 19 20  1  0
 20 21  1  0
 20 22  1  0
  9  4  1  0
 17 11  1  0
 22  7  1  0
 17  8  1  0
M  END
$$$$
