
     RDKit          3D

 24 27  0  0  0  0  0  0  0  0999 V2000
  -18.7144   38.1496  -22.1534 C   0  0  0  0  0  0  0  0  0  0  0  0
  -19.3488   38.6697  -20.8986 C   0  0  0  0  0  0  0  0  0  0  0  0
  -20.3513   38.1402  -20.1918 N   0  0  0  0  0  0  0  0  0  0  0  0
  -20.6397   38.8969  -19.1344 N   0  0  0  0  0  0  0  0  0  0  0  0
  -19.8228   39.9661  -19.1114 C   0  0  0  0  0  0  0  0  0  0  0  0
  -19.6391   41.0328  -18.3329 N   0  0  0  0  0  0  0  0  0  0  0  0
  -18.6943   41.9836  -18.5760 C   0  0  0  0  0  0  0  0  0  0  0  0
  -17.8523   41.9035  -19.6610 C   0  0  0  0  0  0  0  0  0  0  0  0
  -16.8241   42.8781  -19.9869 C   0  0  0  0  0  0  0  0  0  0  0  0
  -15.6477   42.4458  -20.1211 O   0  0  0  0  0  0  0  0  0  0  0  0
  -17.1635   44.2418  -20.1382 N   0  0  0  0  0  0  0  0  0  0  0  0
  -16.2301   45.3360  -20.2130 C   0  0  0  0  0  0  0  0  0  0  0  0
  -17.0418   46.6055  -20.1290 C   0  0  0  0  0  0  0  0  0  0  0  0
  -18.4626   46.2048  -19.8877 C   0  0  0  0  0  0  0  0  0  0  0  0
  -18.5224   44.7163  -20.2423 C   0  0  1  0  0  0  0  0  0  0  0  0
  -19.1101   44.5181  -21.5833 C   0  0  0  0  0  0  0  0  0  0  0  0
  -20.4673   44.3848  -21.7810 C   0  0  0  0  0  0  0  0  0  0  0  0
  -20.9972   44.2051  -23.0659 C   0  0  0  0  0  0  0  0  0  0  0  0
  -20.1721   44.1565  -24.1756 C   0  0  0  0  0  0  0  0  0  0  0  0
  -20.8211   43.9290  -25.7971 Cl  0  0  0  0  0  0  0  0  0  0  0  0
  -18.8163   44.2910  -23.9706 C   0  0  0  0  0  0  0  0  0  0  0  0
  -18.2940   44.4690  -22.6914 C   0  0  0  0  0  0  0  0  0  0  0  0
  -18.0304   40.7890  -20.4914 C   0  0  0  0  0  0  0  0  0  0  0  0
  -18.9965   39.8417  -20.2204 C   0  0  0  0  0  0  0  0  0  0  0  0
  1  2  1  0
  2  3  2  0
  3  4  1  0
  4  5  1  0
  5  6  2  0
  6  7  1  0
  7  8  2  0
  8  9  1  0
  9 10  2  0
  9 11  1  0
 11 12  1  0
 12 13  1  0
 13 14  1  0
 14 15  1  0
 15 16  1  6
 16 17  2  0
 17 18  1  0
 18 19  2  0
 19 20  1  0
 19 21  1  0
 21 22  2  0
  8 23  1  0
 23 24  2  0
 24  2  1  0
 24  5  1  0
 15 11  1  0
 22 16  1  0
M  END
$$$$
