
     RDKit          3D

 13 13  0  0  0  0  0  0  0  0999 V2000
  -18.2606   35.9735  -21.4310 N   0  0  0  0  0  0  0  0  0  0  0  0
  -18.9869   35.0305  -21.5586 C   0  0  0  0  0  0  0  0  0  0  0  0
  -19.8612   33.9266  -21.7255 C   0  0  0  0  0  0  0  0  0  0  0  0
  -21.2014   33.9473  -21.1535 C   0  0  0  0  0  0  0  0  0  0  0  0
  -22.2701   33.9693  -20.7185 N   0  0  0  0  0  0  0  0  0  0  0  0
  -19.5021   32.8547  -22.3954 C   0  0  0  0  0  0  0  0  0  0  0  0
  -18.2425   32.6520  -23.0758 C   0  0  0  0  0  0  0  0  0  0  0  0
  -17.8645   33.4989  -24.1319 C   0  0  0  0  0  0  0  0  0  0  0  0
  -16.6779   33.2850  -24.8009 C   0  0  0  0  0  0  0  0  0  0  0  0
  -15.8238   32.2580  -24.4789 C   0  0  0  0  0  0  0  0  0  0  0  0
  -16.1989   31.4312  -23.4451 C   0  0  0  0  0  0  0  0  0  0  0  0
  -17.4017   31.6250  -22.7464 C   0  0  0  0  0  0  0  0  0  0  0  0
  -17.8408   30.5019  -21.4793 Cl  0  0  0  0  0  0  0  0  0  0  0  0
  1  2  3  0
  2  3  1  0
  3  4  1  0
  4  5  3  0
  3  6  2  3
  6  7  1  0
  7  8  2  0
  8  9  1  0
  9 10  2  0
 10 11  1  0
 11 12  2  0
 12 13  1  0
 12  7  1  0
M  END
$$$$
