
     RDKit          3D

 33 37  0  0  0  0  0  0  0  0999 V2000
  -19.6339   46.2672  -22.0156 C   0  0  0  0  0  0  0  0  0  0  0  0
  -20.6523   45.1441  -21.9085 C   0  0  0  0  0  0  0  0  0  0  0  0
  -21.8270   45.3217  -22.8158 C   0  0  0  0  0  0  0  0  0  0  0  0
  -20.0143   43.8150  -21.9724 C   0  0  0  0  0  0  0  0  0  0  0  0
  -18.7366   43.4760  -21.5082 C   0  0  0  0  0  0  0  0  0  0  0  0
  -17.7710   44.2414  -20.8953 C   0  0  0  0  0  0  0  0  0  0  0  0
  -16.5780   43.6674  -20.5279 C   0  0  0  0  0  0  0  0  0  0  0  0
  -15.5182   44.4140  -19.8796 C   0  0  0  0  0  0  0  0  0  0  0  0
  -15.5733   45.7716  -19.6998 C   0  0  0  0  0  0  0  0  0  0  0  0
  -14.5143   46.4424  -19.0640 C   0  0  0  0  0  0  0  0  0  0  0  0
  -13.4560   45.7539  -18.6362 N   0  0  0  0  0  0  0  0  0  0  0  0
  -13.4112   44.4097  -18.8191 C   0  0  0  0  0  0  0  0  0  0  0  0
  -12.2987   43.6507  -18.3676 N   0  0  0  0  0  0  0  0  0  0  0  0
  -12.4924   42.2978  -17.9341 C   0  0  1  0  0  0  0  0  0  0  0  0
  -11.2417   41.4971  -17.8292 C   0  0  0  0  0  0  0  0  0  0  0  0
  -10.2287   42.1816  -16.9052 C   0  0  0  0  0  0  0  0  0  0  0  0
  -10.9075   42.6614  -15.6382 C   0  0  2  0  0  0  0  0  0  0  0  0
  -10.1628   42.3539  -14.4584 N   0  0  0  0  0  0  0  0  0  0  0  0
   -9.1702   41.3411  -14.6091 C   0  0  0  0  0  0  0  0  0  0  0  0
   -8.1702   41.2890  -13.4971 C   0  0  0  0  0  0  0  0  0  0  0  0
   -8.2400   39.9782  -12.7240 C   0  0  0  0  0  0  0  0  0  0  0  0
   -9.5121   39.8553  -12.2206 O   0  0  0  0  0  0  0  0  0  0  0  0
  -10.4897   39.8568  -13.2064 C   0  0  0  0  0  0  0  0  0  0  0  0
   -9.9066   39.9936  -14.5991 C   0  0  0  0  0  0  0  0  0  0  0  0
  -12.2311   41.8929  -15.5384 C   0  0  0  0  0  0  0  0  0  0  0  0
  -13.2002   42.3386  -16.5960 C   0  0  0  0  0  0  0  0  0  0  0  0
  -14.4297   43.7828  -19.4279 N   0  0  0  0  0  0  0  0  0  0  0  0
  -16.4094   42.3051  -20.8046 C   0  0  0  0  0  0  0  0  0  0  0  0
  -17.3790   41.5571  -21.4147 C   0  0  0  0  0  0  0  0  0  0  0  0
  -18.5725   42.1567  -21.7758 C   0  0  0  0  0  0  0  0  0  0  0  0
  -19.6776   41.7288  -22.3623 N   0  0  0  0  0  0  0  0  0  0  0  0
  -20.5770   42.7052  -22.4999 N   0  0  0  0  0  0  0  0  0  0  0  0
  -21.8774   42.5805  -23.0950 C   0  0  0  0  0  0  0  0  0  0  0  0
  1  2  1  0
  2  3  1  0
  2  4  1  0
  4  5  2  0
  5  6  1  0
  6  7  2  0
  7  8  1  0
  8  9  2  0
  9 10  1  0
 10 11  2  0
 11 12  1  0
 12 13  1  0
 14 13  1  1
 14 15  1  0
 15 16  1  0
 16 17  1  0
 17 18  1  1
 18 19  1  0
 19 20  1  0
 20 21  1  0
 21 22  1  0
 22 23  1  0
 23 24  1  0
 17 25  1  0
 25 26  1  0
 12 27  2  0
  7 28  1  0
 28 29  2  0
 29 30  1  0
 30 31  2  0
 31 32  1  0
 32 33  1  0
 32  4  1  0
 30  5  1  0
 27  8  1  0
 26 14  1  0
 24 19  1  0
M  END
$$$$
