
     RDKit          3D

 41 45  0  0  0  0  0  0  0  0999 V2000
  -28.9259   18.2721  -23.2815 C   0  0  0  0  0  0  0  0  0  0  0  0
  -29.4725   16.9508  -22.8978 C   0  0  0  0  0  0  0  0  0  0  0  0
  -30.4738   16.4273  -23.5854 N   0  0  0  0  0  0  0  0  0  0  0  0
  -31.0208   15.2023  -23.2721 C   0  0  0  0  0  0  0  0  0  0  0  0
  -30.5400   14.4787  -22.2267 C   0  0  0  0  0  0  0  0  0  0  0  0
  -31.0696   13.2236  -21.8745 N   0  0  0  0  0  0  0  0  0  0  0  0
  -30.7075   12.3705  -20.8317 C   0  0  0  0  0  0  0  0  0  0  0  0
  -29.5859   12.5168  -20.2989 O   0  0  0  0  0  0  0  0  0  0  0  0
  -31.5461   11.3075  -20.3071 C   0  0  0  0  0  0  0  0  0  0  0  0
  -31.5698   10.0554  -20.8459 C   0  0  0  0  0  0  0  0  0  0  0  0
  -32.3952    9.0791  -20.2966 C   0  0  0  0  0  0  0  0  0  0  0  0
  -33.2151    9.3013  -19.2107 C   0  0  0  0  0  0  0  0  0  0  0  0
  -34.0715    8.2289  -18.6659 C   0  0  0  0  0  0  0  0  0  0  0  0
  -34.1251    7.0667  -19.4870 N   0  0  0  0  0  0  0  0  0  0  0  0
  -35.3899    6.9011  -20.1443 C   0  0  0  0  0  0  0  0  0  0  0  0
  -35.8844    5.5147  -20.2793 C   0  0  0  0  0  0  0  0  0  0  0  0
  -34.9105    4.4881  -20.4493 N   0  0  0  0  0  0  0  0  0  0  0  0
  -35.3820    3.1729  -20.0877 C   0  0  0  0  0  0  0  0  0  0  0  0
  -33.6249    4.7953  -19.8740 C   0  0  0  0  0  0  0  0  0  0  0  0
  -33.8364    5.8434  -18.7700 C   0  0  0  0  0  0  0  0  0  0  0  0
  -33.1921   10.5788  -18.6595 C   0  0  0  0  0  0  0  0  0  0  0  0
  -34.0293   10.9042  -17.5060 C   0  0  0  0  0  0  0  0  0  0  0  0
  -34.2155   12.2885  -17.3769 F   0  0  0  0  0  0  0  0  0  0  0  0
  -33.5500   10.3727  -16.3149 F   0  0  0  0  0  0  0  0  0  0  0  0
  -35.2994   10.3796  -17.6729 F   0  0  0  0  0  0  0  0  0  0  0  0
  -32.3689   11.5450  -19.2109 C   0  0  0  0  0  0  0  0  0  0  0  0
  -29.4794   15.0248  -21.4923 C   0  0  0  0  0  0  0  0  0  0  0  0
  -28.9474   16.2377  -21.8126 C   0  0  0  0  0  0  0  0  0  0  0  0
  -27.8840   16.8084  -21.0977 N   0  0  0  0  0  0  0  0  0  0  0  0
  -26.8088   16.1255  -20.4970 C   0  0  0  0  0  0  0  0  0  0  0  0
  -25.8339   16.6743  -19.7682 N   0  0  0  0  0  0  0  0  0  0  0  0
  -24.8262   15.9876  -19.2155 C   0  0  0  0  0  0  0  0  0  0  0  0
  -24.7612   14.6066  -19.3936 C   0  0  0  0  0  0  0  0  0  0  0  0
  -25.7500   14.0164  -20.1379 C   0  0  0  0  0  0  0  0  0  0  0  0
  -25.7595   12.5890  -20.3704 C   0  0  0  0  0  0  0  0  0  0  0  0
  -24.8346   11.7636  -19.8123 C   0  0  0  0  0  0  0  0  0  0  0  0
  -24.8824   10.3893  -20.0615 C   0  0  0  0  0  0  0  0  0  0  0  0
  -25.8826    9.9198  -20.8769 C   0  0  0  0  0  0  0  0  0  0  0  0
  -26.7957   10.7340  -21.4280 N   0  0  0  0  0  0  0  0  0  0  0  0
  -26.7507   12.0407  -21.1915 C   0  0  0  0  0  0  0  0  0  0  0  0
  -26.7289   14.7701  -20.6610 N   0  0  0  0  0  0  0  0  0  0  0  0
  1  2  1  0
  2  3  2  0
  3  4  1  0
  4  5  2  0
  5  6  1  0
  6  7  1  0
  7  8  2  0
  7  9  1  0
  9 10  2  0
 10 11  1  0
 11 12  2  0
 12 13  1  0
 13 14  1  0
 14 15  1  0
 15 16  1  0
 16 17  1  0
 17 18  1  0
 17 19  1  0
 19 20  1  0
 12 21  1  0
 21 22  1  0
 22 23  1  0
 22 24  1  0
 22 25  1  0
 21 26  2  0
  5 27  1  0
 27 28  2  0
 28 29  1  0
 29 30  1  0
 30 31  2  0
 31 32  1  0
 32 33  2  0
 33 34  1  0
 34 35  1  0
 35 36  2  0
 36 37  1  0
 37 38  2  0
 38 39  1  0
 39 40  2  0
 34 41  2  0
 28  2  1  0
 41 30  1  0
 26  9  1  0
 40 35  1  0
 20 14  1  0
M  END
$$$$
