
     RDKit          3D

 24 28  0  0  0  0  0  0  0  0999 V2000
  -18.2196   33.8391  -22.7193 N   0  0  0  0  0  0  0  0  0  0  0  0
  -19.3155   34.7890  -22.7093 C   0  0  0  0  0  0  0  0  0  0  0  0
  -20.3638   34.4042  -23.2095 O   0  0  0  0  0  0  0  0  0  0  0  0
  -19.0989   36.0810  -22.1272 C   0  0  0  0  0  0  0  0  0  0  0  0
  -18.0264   36.2125  -21.2519 C   0  0  0  0  0  0  0  0  0  0  0  0
  -17.7115   37.3699  -20.7233 N   0  0  0  0  0  0  0  0  0  0  0  0
  -18.4206   38.4707  -21.0135 C   0  0  0  0  0  0  0  0  0  0  0  0
  -18.2554   39.7341  -20.5686 N   0  0  0  0  0  0  0  0  0  0  0  0
  -19.2028   40.4746  -21.1268 C   0  0  0  0  0  0  0  0  0  0  0  0
  -19.9961   39.6701  -21.9500 C   0  0  0  0  0  0  0  0  0  0  0  0
  -19.5084   38.3911  -21.8869 C   0  0  0  0  0  0  0  0  0  0  0  0
  -19.8847   37.1738  -22.4768 C   0  0  0  0  0  0  0  0  0  0  0  0
  -21.0112   37.0640  -23.2649 N   0  0  0  0  0  0  0  0  0  0  0  0
  -21.2891   37.2659  -24.6426 C   0  0  1  0  0  0  0  0  0  0  0  0
  -22.4350   36.3731  -25.0517 C   0  0  1  0  0  0  0  0  0  0  0  0
  -23.7210   36.7220  -24.3244 C   0  0  0  0  0  0  0  0  0  0  0  0
  -24.1442   38.1267  -24.6567 C   0  0  1  0  0  0  0  0  0  0  0  0
  -23.0365   39.0344  -24.1749 C   0  0  0  0  0  0  0  0  0  0  0  0
  -21.7864   38.7120  -24.9071 C   0  0  2  0  0  0  0  0  0  0  0  0
  -22.0019   38.8646  -26.3777 C   0  0  0  0  0  0  0  0  0  0  0  0
  -23.0759   37.9144  -26.8510 C   0  0  2  0  0  0  0  0  0  0  0  0
  -23.2477   38.0425  -28.2217 O   0  0  0  0  0  0  0  0  0  0  0  0
  -24.3584   38.2162  -26.1423 C   0  0  0  0  0  0  0  0  0  0  0  0
  -22.6504   36.5173  -26.5442 C   0  0  0  0  0  0  0  0  0  0  0  0
  1  2  1  0
  2  3  2  0
  2  4  1  0
  4  5  2  0
  5  6  1  0
  6  7  2  0
  7  8  1  0
  8  9  1  0
  9 10  2  0
 10 11  1  0
 11 12  2  0
 12 13  1  0
 14 13  1  1
 14 15  1  0
 15 16  1  1
 17 16  1  6
 17 18  1  0
 19 18  1  1
 19 20  1  0
 20 21  1  0
 21 22  1  6
 21 23  1  0
 21 24  1  0
 12  4  1  0
 19 14  1  0
 11  7  1  0
 24 15  1  0
 23 17  1  0
M  END
$$$$
