
     RDKit          3D

 40 46  0  0  0  0  0  0  0  0999 V2000
  -22.1982   43.6079  -24.9073 C   0  0  0  0  0  0  0  0  0  0  0  0
  -21.7228   42.8395  -23.8305 O   0  0  0  0  0  0  0  0  0  0  0  0
  -22.4014   41.7183  -23.3569 C   0  0  0  0  0  0  0  0  0  0  0  0
  -23.6998   41.8197  -22.9056 C   0  0  0  0  0  0  0  0  0  0  0  0
  -24.4110   40.7453  -22.4303 C   0  0  0  0  0  0  0  0  0  0  0  0
  -23.7960   39.4868  -22.3998 C   0  0  0  0  0  0  0  0  0  0  0  0
  -22.5070   39.3520  -22.8389 C   0  0  0  0  0  0  0  0  0  0  0  0
  -21.8181   40.4719  -23.3165 C   0  0  0  0  0  0  0  0  0  0  0  0
  -22.1110   37.9554  -22.6675 C   0  0  1  0  0  0  0  0  0  0  0  0
  -21.2418   37.2773  -23.6611 C   0  0  0  0  0  0  0  0  0  0  0  0
  -20.7636   37.5086  -22.2705 C   0  0  1  0  0  0  0  0  0  0  0  0
  -19.6391   38.3875  -21.9882 C   0  0  0  0  0  0  0  0  0  0  0  0
  -19.5574   39.0044  -20.7611 C   0  0  0  0  0  0  0  0  0  0  0  0
  -18.5176   39.8687  -20.4235 C   0  0  0  0  0  0  0  0  0  0  0  0
  -17.5255   40.1416  -21.3097 C   0  0  0  0  0  0  0  0  0  0  0  0
  -16.4065   40.9282  -21.2338 C   0  0  0  0  0  0  0  0  0  0  0  0
  -15.8449   41.8110  -20.2401 C   0  0  0  0  0  0  0  0  0  0  0  0
  -15.7612   43.1048  -20.2583 C   0  0  0  0  0  0  0  0  0  0  0  0
  -14.9468   43.9212  -19.3541 C   0  0  0  0  0  0  0  0  0  0  0  0
  -14.8264   43.5673  -18.0189 C   0  0  0  0  0  0  0  0  0  0  0  0
  -14.0607   44.3133  -17.1320 C   0  0  0  0  0  0  0  0  0  0  0  0
  -13.3906   45.4412  -17.5604 C   0  0  0  0  0  0  0  0  0  0  0  0
  -12.5706   46.2514  -16.6231 C   0  0  0  0  0  0  0  0  0  0  0  0
  -13.3821   47.2585  -16.0399 N   0  0  0  0  0  0  0  0  0  0  0  0
  -14.4951   46.8166  -15.2687 C   0  0  0  0  0  0  0  0  0  0  0  0
  -15.4158   47.9330  -14.8623 C   0  0  2  0  0  0  0  0  0  0  0  0
  -16.6621   47.9591  -15.7358 C   0  0  0  0  0  0  0  0  0  0  0  0
  -14.8031   49.1686  -14.8043 O   0  0  0  0  0  0  0  0  0  0  0  0
  -13.4715   48.9795  -14.4016 C   0  0  2  0  0  0  0  0  0  0  0  0
  -12.8966   50.2953  -13.9866 C   0  0  0  0  0  0  0  0  0  0  0  0
  -12.7459   48.4562  -15.6257 C   0  0  0  0  0  0  0  0  0  0  0  0
  -13.5278   45.7683  -18.8884 C   0  0  0  0  0  0  0  0  0  0  0  0
  -14.3005   45.0178  -19.7897 C   0  0  0  0  0  0  0  0  0  0  0  0
  -15.8123   40.7551  -22.4767 N   0  0  0  0  0  0  0  0  0  0  0  0
  -16.5117   39.9477  -23.2139 N   0  0  0  0  0  0  0  0  0  0  0  0
  -17.6013   39.5169  -22.5608 C   0  0  0  0  0  0  0  0  0  0  0  0
  -18.6252   38.6664  -22.8917 C   0  0  0  0  0  0  0  0  0  0  0  0
  -23.3103   37.2632  -22.2067 C   0  0  0  0  0  0  0  0  0  0  0  0
  -23.4880   36.0109  -22.0024 O   0  0  0  0  0  0  0  0  0  0  0  0
  -24.3233   38.2241  -22.0001 N   0  0  0  0  0  0  0  0  0  0  0  0
  1  2  1  0
  2  3  1  0
  3  4  2  0
  4  5  1  0
  5  6  2  0
  6  7  1  0
  7  8  2  0
  7  9  1  0
  9 10  1  6
 10 11  1  0
 11 12  1  6
 12 13  2  0
 13 14  1  0
 14 15  2  0
 15 16  1  0
 16 17  1  0
 17 18  2  0
 18 19  1  0
 19 20  2  0
 20 21  1  0
 21 22  2  0
 22 23  1  0
 23 24  1  0
 24 25  1  0
 25 26  1  0
 26 27  1  6
 26 28  1  0
 28 29  1  0
 29 30  1  6
 29 31  1  0
 22 32  1  0
 32 33  2  0
 16 34  2  0
 34 35  1  0
 35 36  1  0
 36 37  2  0
  9 38  1  0
 38 39  2  0
 38 40  1  0
  8  3  1  0
 11  9  1  0
 37 12  1  0
 40  6  1  0
 36 15  1  0
 33 19  1  0
 31 24  1  0
M  END
$$$$
