
     RDKit          3D

 19 21  0  0  0  0  0  0  0  0999 V2000
  -18.2839   18.3176  -31.8477 C   0  0  0  0  0  0  0  0  0  0  0  0
  -17.1405   17.4565  -32.2715 C   0  0  0  0  0  0  0  0  0  0  0  0
  -16.7927   17.6519  -33.7066 C   0  0  0  0  0  0  0  0  0  0  0  0
  -17.4236   16.9942  -34.7304 C   0  0  0  0  0  0  0  0  0  0  0  0
  -17.0605   17.2122  -36.0604 C   0  0  0  0  0  0  0  0  0  0  0  0
  -16.0566   18.0965  -36.3701 C   0  0  0  0  0  0  0  0  0  0  0  0
  -15.6778   18.3274  -37.7159 N   0  0  0  0  0  0  0  0  0  0  0  0
  -14.7147   17.6234  -38.2023 C   0  0  0  0  0  0  0  0  0  0  0  0
  -14.0985   16.6865  -37.4028 C   0  0  0  0  0  0  0  0  0  0  0  0
  -13.0484   15.8986  -37.8867 C   0  0  0  0  0  0  0  0  0  0  0  0
  -12.4126   14.9072  -37.0056 C   0  0  0  0  0  0  0  0  0  0  0  0
  -12.6863   16.1133  -39.1638 N   0  0  0  0  0  0  0  0  0  0  0  0
  -13.2966   17.0334  -39.9377 C   0  0  0  0  0  0  0  0  0  0  0  0
  -13.1392   17.4409  -41.2101 N   0  0  0  0  0  0  0  0  0  0  0  0
  -14.0264   18.4147  -41.5049 C   0  0  0  0  0  0  0  0  0  0  0  0
  -14.7431   18.6113  -40.3960 N   0  0  0  0  0  0  0  0  0  0  0  0
  -14.3122   17.7896  -39.4568 N   0  0  0  0  0  0  0  0  0  0  0  0
  -15.4301   18.7512  -35.3345 C   0  0  0  0  0  0  0  0  0  0  0  0
  -15.7923   18.5343  -34.0016 C   0  0  0  0  0  0  0  0  0  0  0  0
  1  2  1  0
  2  3  1  0
  3  4  2  0
  4  5  1  0
  5  6  2  0
  6  7  1  0
  7  8  2  0
  8  9  1  0
  9 10  2  0
 10 11  1  0
 10 12  1  0
 12 13  1  0
 13 14  2  0
 14 15  1  0
 15 16  2  0
 16 17  1  0
  6 18  1  0
 18 19  2  0
 19  3  1  0
 17  8  1  0
 17 13  1  0
M  END
$$$$
