
     RDKit          3D

 32 33  0  0  0  0  0  0  0  0999 V2000
  -29.4464   13.5754  -20.9363 Cl  0  0  0  0  0  0  0  0  0  0  0  0
  -29.4434   13.5770  -20.9383 Cl  0  0  0  0  0  0  0  0  0  0  0  0
  -23.3852   11.1478  -21.5101 F   0  0  0  0  0  0  0  0  0  0  0  0
  -24.2852   12.1715  -21.6118 C   0  0  0  0  0  0  0  0  0  0  0  0
  -25.0138   12.2160  -22.7844 C   0  0  0  0  0  0  0  0  0  0  0  0
  -25.9299   13.2332  -22.9226 C   0  0  0  0  0  0  0  0  0  0  0  0
  -26.1079   14.1664  -21.9269 C   0  0  0  0  0  0  0  0  0  0  0  0
  -27.1439   15.2535  -22.1711 C   0  0  0  0  0  0  0  0  0  0  0  0
  -26.5503   16.3595  -22.9184 C   0  0  0  0  0  0  0  0  0  0  0  0
  -25.2648   16.2283  -23.4023 C   0  0  0  0  0  0  0  0  0  0  0  0
  -24.6393   17.2601  -24.0966 C   0  0  0  0  0  0  0  0  0  0  0  0
  -25.3242   18.4420  -24.3045 C   0  0  0  0  0  0  0  0  0  0  0  0
  -24.7104   19.4635  -24.9901 F   0  0  0  0  0  0  0  0  0  0  0  0
  -26.6026   18.5690  -23.8215 C   0  0  0  0  0  0  0  0  0  0  0  0
  -27.2158   17.5277  -23.1279 C   0  0  0  0  0  0  0  0  0  0  0  0
  -28.2691   14.5963  -22.6757 N   0  0  0  0  0  0  0  0  0  0  0  0
  -29.4478   15.2696  -23.0213 C   0  0  0  0  0  0  0  0  0  0  0  0
  -30.1681   15.7298  -21.7495 C   0  0  0  0  0  0  0  0  0  0  0  0
  -30.3380   14.6248  -20.8408 N   0  0  0  0  0  0  0  0  0  0  0  0
  -31.6944   14.5335  -20.3340 C   0  0  0  0  0  0  0  0  0  0  0  0
  -31.7857   13.3577  -19.3998 C   0  0  0  0  0  0  0  0  0  0  0  0
  -32.6062   12.3564  -19.6228 C   0  0  0  0  0  0  0  0  0  0  0  0
  -32.7478   11.1891  -18.7651 C   0  0  0  0  0  0  0  0  0  0  0  0
  -33.6456   10.1944  -19.1018 C   0  0  0  0  0  0  0  0  0  0  0  0
  -33.8362    9.0602  -18.3398 C   0  0  0  0  0  0  0  0  0  0  0  0
  -33.0918    8.9037  -17.1745 C   0  0  0  0  0  0  0  0  0  0  0  0
  -32.1891    9.8758  -16.8108 C   0  0  0  0  0  0  0  0  0  0  0  0
  -32.0267   11.0103  -17.6120 C   0  0  0  0  0  0  0  0  0  0  0  0
  -29.9380   13.3508  -21.3478 C   0  0  0  0  0  0  0  0  0  0  0  0
  -28.5321   13.4072  -21.8487 C   0  0  0  0  0  0  0  0  0  0  0  0
  -25.3745   14.1029  -20.7728 C   0  0  0  0  0  0  0  0  0  0  0  0
  -24.4522   13.0941  -20.6125 C   0  0  0  0  0  0  0  0  0  0  0  0
  3  4  1  0
  4  5  2  0
  5  6  1  0
  6  7  2  0
  7  8  1  0
  8  9  1  0
  9 10  2  0
 10 11  1  0
 11 12  2  0
 12 13  1  0
 12 14  1  0
 14 15  2  0
  8 16  1  0
 16 17  1  0
 17 18  1  0
 18 19  1  0
 19 20  1  0
 20 21  1  0
 21 22  2  0
 22 23  1  0
 23 24  2  0
 24 25  1  0
 25 26  2  0
 26 27  1  0
 27 28  2  0
 19 29  1  0
 29 30  1  0
  7 31  1  0
 31 32  2  0
 32  4  1  0
 15  9  1  0
 30 16  1  0
 28 23  1  0
M  END
$$$$
