
     RDKit          3D

 34 38  0  0  0  0  0  0  0  0999 V2000
  -13.1966   45.2740  -16.3915 C   0  0  0  0  0  0  0  0  0  0  0  0
  -13.1488   44.6966  -17.6695 O   0  0  0  0  0  0  0  0  0  0  0  0
  -14.2433   44.1013  -18.2762 C   0  0  0  0  0  0  0  0  0  0  0  0
  -14.4509   42.7411  -18.1796 C   0  0  0  0  0  0  0  0  0  0  0  0
  -15.5636   42.1609  -18.8009 C   0  0  0  0  0  0  0  0  0  0  0  0
  -16.4429   42.9299  -19.5004 C   0  0  0  0  0  0  0  0  0  0  0  0
  -17.6169   42.3489  -20.1619 C   0  0  0  0  0  0  0  0  0  0  0  0
  -18.6644   43.1223  -20.5964 C   0  0  0  0  0  0  0  0  0  0  0  0
  -19.7592   42.5054  -21.2216 C   0  0  0  0  0  0  0  0  0  0  0  0
  -19.7355   41.1340  -21.3748 C   0  0  0  0  0  0  0  0  0  0  0  0
  -20.7777   40.4626  -21.9739 C   0  0  0  0  0  0  0  0  0  0  0  0
  -21.8839   41.1890  -22.4627 N   0  0  0  0  0  0  0  0  0  0  0  0
  -23.2545   40.7552  -22.4531 C   0  0  0  0  0  0  0  0  0  0  0  0
  -23.9434   41.3356  -23.6374 C   0  0  0  0  0  0  0  0  0  0  0  0
  -24.0299   42.7147  -23.5173 O   0  0  0  0  0  0  0  0  0  0  0  0
  -22.9292   43.3100  -22.9886 C   0  0  0  0  0  0  0  0  0  0  0  0
  -21.6590   42.5006  -23.0249 C   0  0  2  0  0  0  0  0  0  0  0  0
  -20.9530   42.5027  -24.3294 C   0  0  0  0  0  0  0  0  0  0  0  0
  -20.7186   39.1012  -22.1007 N   0  0  0  0  0  0  0  0  0  0  0  0
  -19.6872   38.3639  -21.6694 C   0  0  0  0  0  0  0  0  0  0  0  0
  -19.6633   36.9398  -21.8186 N   0  0  0  0  0  0  0  0  0  0  0  0
  -18.4626   36.2205  -21.4077 C   0  0  0  0  0  0  0  0  0  0  0  0
  -18.9839   34.9544  -20.7195 C   0  0  0  0  0  0  0  0  0  0  0  0
  -19.7094   34.2576  -21.6576 O   0  0  0  0  0  0  0  0  0  0  0  0
  -20.9313   34.8417  -21.9303 C   0  0  0  0  0  0  0  0  0  0  0  0
  -20.8175   36.2840  -22.3626 C   0  0  2  0  0  0  0  0  0  0  0  0
  -20.8024   36.4048  -23.8881 C   0  0  0  0  0  0  0  0  0  0  0  0
  -18.6647   39.0102  -21.0837 N   0  0  0  0  0  0  0  0  0  0  0  0
  -18.6737   40.3682  -20.9319 C   0  0  0  0  0  0  0  0  0  0  0  0
  -17.6450   40.9974  -20.3384 N   0  0  0  0  0  0  0  0  0  0  0  0
  -16.2014   44.2995  -19.5767 C   0  0  0  0  0  0  0  0  0  0  0  0
  -15.1215   44.9072  -18.9813 C   0  0  0  0  0  0  0  0  0  0  0  0
  -14.8928   46.3706  -19.0823 C   0  0  0  0  0  0  0  0  0  0  0  0
  -16.0563   47.1080  -18.8294 O   0  0  0  0  0  0  0  0  0  0  0  0
  1  2  1  0
  2  3  1  0
  3  4  2  0
  4  5  1  0
  5  6  2  0
  6  7  1  0
  7  8  2  0
  8  9  1  0
  9 10  2  0
 10 11  1  0
 11 12  1  0
 12 13  1  0
 13 14  1  0
 14 15  1  0
 15 16  1  0
 16 17  1  0
 17 18  1  6
 11 19  2  0
 19 20  1  0
 20 21  1  0
 21 22  1  0
 22 23  1  0
 23 24  1  0
 24 25  1  0
 25 26  1  0
 26 27  1  6
 20 28  2  0
 28 29  1  0
 29 30  2  0
  6 31  1  0
 31 32  2  0
 32 33  1  0
 33 34  1  0
 32  3  1  0
 30  7  1  0
 29 10  1  0
 17 12  1  0
 26 21  1  0
M  END
$$$$
