
     RDKit          3D

 30 34  0  0  0  0  0  0  0  0999 V2000
  -31.8629   15.8626  -17.0721 C   0  0  0  0  0  0  0  0  0  0  0  0
  -31.1111   15.5613  -18.2313 O   0  0  0  0  0  0  0  0  0  0  0  0
  -31.3431   14.3505  -18.8641 C   0  0  0  0  0  0  0  0  0  0  0  0
  -32.3384   13.4831  -18.4581 C   0  0  0  0  0  0  0  0  0  0  0  0
  -32.5642   12.2792  -19.0925 C   0  0  0  0  0  0  0  0  0  0  0  0
  -31.7692   11.9079  -20.1844 C   0  0  0  0  0  0  0  0  0  0  0  0
  -30.7819   12.7477  -20.6020 C   0  0  0  0  0  0  0  0  0  0  0  0
  -29.9757   12.4159  -21.6770 C   0  0  0  0  0  0  0  0  0  0  0  0
  -30.1192   11.2053  -22.4015 N   0  0  0  0  0  0  0  0  0  0  0  0
  -30.3954   11.2704  -23.8192 C   0  0  0  0  0  0  0  0  0  0  0  0
  -29.2743   11.7981  -24.6002 C   0  0  0  0  0  0  0  0  0  0  0  0
  -28.1345   11.0192  -24.7086 C   0  0  0  0  0  0  0  0  0  0  0  0
  -27.0653   11.4958  -25.4394 C   0  0  0  0  0  0  0  0  0  0  0  0
  -27.1368   12.7299  -26.0504 C   0  0  0  0  0  0  0  0  0  0  0  0
  -28.2892   13.4801  -25.9214 C   0  0  0  0  0  0  0  0  0  0  0  0
  -29.3734   13.0212  -25.1930 C   0  0  0  0  0  0  0  0  0  0  0  0
  -29.0224   13.3204  -22.0128 N   0  0  0  0  0  0  0  0  0  0  0  0
  -28.8095   14.4875  -21.3917 C   0  0  0  0  0  0  0  0  0  0  0  0
  -27.7785   15.3831  -21.8142 N   0  0  0  0  0  0  0  0  0  0  0  0
  -27.7499   16.7031  -21.5523 C   0  0  0  0  0  0  0  0  0  0  0  0
  -28.6922   17.4731  -20.8302 N   0  0  0  0  0  0  0  0  0  0  0  0
  -26.6328   17.2467  -22.1003 N   0  0  0  0  0  0  0  0  0  0  0  0
  -25.9546   16.2736  -22.7085 C   0  0  0  0  0  0  0  0  0  0  0  0
  -24.7813   16.1954  -23.4213 C   0  0  0  0  0  0  0  0  0  0  0  0
  -24.3130   15.0135  -23.9491 C   0  0  0  0  0  0  0  0  0  0  0  0
  -25.0251   13.8485  -23.7727 C   0  0  0  0  0  0  0  0  0  0  0  0
  -26.2211   13.9246  -23.0468 C   0  0  0  0  0  0  0  0  0  0  0  0
  -26.6948   15.1041  -22.5163 C   0  0  0  0  0  0  0  0  0  0  0  0
  -29.5951   14.7864  -20.3616 N   0  0  0  0  0  0  0  0  0  0  0  0
  -30.5675   13.9587  -19.9507 C   0  0  0  0  0  0  0  0  0  0  0  0
  1  2  1  0
  2  3  1  0
  3  4  2  0
  4  5  1  0
  5  6  2  0
  6  7  1  0
  7  8  2  0
  8  9  1  0
  9 10  1  0
 10 11  1  0
 11 12  2  0
 12 13  1  0
 13 14  2  0
 14 15  1  0
 15 16  2  0
  8 17  1  0
 17 18  2  0
 18 19  1  0
 19 20  1  0
 20 21  1  0
 20 22  2  0
 22 23  1  0
 23 24  2  0
 24 25  1  0
 25 26  2  0
 26 27  1  0
 27 28  2  0
 18 29  1  0
 29 30  2  0
 30  3  1  0
 30  7  1  0
 16 11  1  0
 28 19  1  0
 28 23  1  0
M  END
$$$$
