
     RDKit          3D

 32 35  0  0  0  0  0  0  0  0999 V2000
  -16.4270   42.7757  -20.0156 O   0  0  0  0  0  0  0  0  0  0  0  0
  -16.8263   43.7351  -20.7161 C   0  0  0  0  0  0  0  0  0  0  0  0
  -16.0212   44.8800  -20.8467 N   0  0  0  0  0  0  0  0  0  0  0  0
  -14.7685   44.9572  -20.1755 C   0  0  0  0  0  0  0  0  0  0  0  0
  -14.3342   46.1369  -19.6086 C   0  0  0  0  0  0  0  0  0  0  0  0
  -13.1080   46.2197  -18.9493 C   0  0  0  0  0  0  0  0  0  0  0  0
  -12.3121   45.0921  -18.8638 C   0  0  0  0  0  0  0  0  0  0  0  0
  -12.7209   43.9049  -19.4196 C   0  0  0  0  0  0  0  0  0  0  0  0
  -11.8424   42.7109  -19.3109 C   0  0  0  0  0  0  0  0  0  0  0  0
  -12.5445   41.5562  -19.0840 F   0  0  0  0  0  0  0  0  0  0  0  0
  -10.9862   42.9237  -18.2386 F   0  0  0  0  0  0  0  0  0  0  0  0
  -11.0273   42.5889  -20.4294 F   0  0  0  0  0  0  0  0  0  0  0  0
  -13.9433   43.8593  -20.0662 C   0  0  0  0  0  0  0  0  0  0  0  0
  -18.1036   43.5828  -21.3426 N   0  0  0  0  0  0  0  0  0  0  0  0
  -18.8897   42.4248  -21.2071 C   0  0  0  0  0  0  0  0  0  0  0  0
  -18.2780   41.1638  -21.1032 C   0  0  0  0  0  0  0  0  0  0  0  0
  -19.0219   40.0100  -20.9504 C   0  0  0  0  0  0  0  0  0  0  0  0
  -18.2179   38.4534  -20.8249 S   0  0  0  0  0  6  0  0  0  0  0  0
  -18.1700   38.0715  -19.3740 O   0  0  0  0  0  0  0  0  0  0  0  0
  -16.8113   38.6171  -21.3330 O   0  0  0  0  0  0  0  0  0  0  0  0
  -19.0687   37.2473  -21.7285 N   0  0  0  0  0  0  0  0  0  0  0  0
  -18.9751   37.4686  -23.1373 C   0  0  0  0  0  0  0  0  0  0  0  0
  -19.1815   36.2540  -24.0614 C   0  0  0  0  0  0  0  0  0  0  0  0
  -20.1903   37.3568  -24.0028 C   0  0  0  0  0  0  0  0  0  0  0  0
  -20.3937   40.1304  -20.9022 C   0  0  0  0  0  0  0  0  0  0  0  0
  -21.0347   41.3783  -21.0036 C   0  0  0  0  0  0  0  0  0  0  0  0
  -20.2404   42.4921  -21.1545 C   0  0  0  0  0  0  0  0  0  0  0  0
  -20.8606   43.8653  -21.2775 C   0  0  0  0  0  0  0  0  0  0  0  0
  -20.5243   44.8595  -20.4649 C   0  0  0  0  0  0  0  0  0  0  0  0
  -21.0846   46.1097  -20.5467 C   0  0  0  0  0  0  0  0  0  0  0  0
  -22.2436   45.8943  -21.9422 S   0  0  0  0  0  0  0  0  0  0  0  0
  -21.8194   44.1367  -22.2346 C   0  0  0  0  0  0  0  0  0  0  0  0
  1  2  2  0
  2  3  1  0
  3  4  1  0
  4  5  2  0
  5  6  1  0
  6  7  2  0
  7  8  1  0
  8  9  1  0
  9 10  1  0
  9 11  1  0
  9 12  1  0
  8 13  2  0
  2 14  1  0
 14 15  1  0
 15 16  2  0
 16 17  1  0
 17 18  1  0
 18 19  2  0
 18 20  2  0
 18 21  1  0
 21 22  1  0
 22 23  1  0
 23 24  1  0
 17 25  2  0
 25 26  1  0
 26 27  2  0
 27 28  1  0
 28 29  1  0
 29 30  2  0
 30 31  1  0
 31 32  1  0
 13  4  1  0
 27 15  1  0
 32 28  2  0
 24 22  1  0
M  END
$$$$
