
     RDKit          3D

 42 45  0  0  0  0  0  0  0  0999 V2000
  -13.4562   19.8111  -43.4370 C   0  0  0  0  0  0  0  0  0  0  0  0
  -14.7816   19.4647  -43.2453 O   0  0  0  0  0  0  0  0  0  0  0  0
  -15.9294   20.1871  -43.3688 C   0  0  0  0  0  0  0  0  0  0  0  0
  -16.0158   21.3423  -44.1416 C   0  0  0  0  0  0  0  0  0  0  0  0
  -17.2263   22.0854  -44.2533 C   0  0  0  0  0  0  0  0  0  0  0  0
  -17.2984   23.3413  -44.9771 C   0  0  0  0  0  0  0  0  0  0  0  0
  -16.7708   24.3908  -44.8096 O   0  0  0  0  0  0  0  0  0  0  0  0
  -18.2007   23.3002  -46.1377 O   0  0  0  0  0  0  0  0  0  0  0  0
  -18.2056   21.5315  -43.5608 C   0  0  0  0  0  0  0  0  0  0  0  0
  -18.3279   20.4271  -42.7635 C   0  0  0  0  0  0  0  0  0  0  0  0
  -17.0478   19.7171  -42.6708 C   0  0  0  0  0  0  0  0  0  0  0  0
  -16.8489   18.7716  -41.6860 N   0  0  0  0  0  0  0  0  0  0  0  0
  -17.4503   18.5038  -40.4729 C   0  0  0  0  0  0  0  0  0  0  0  0
  -18.6671   18.1989  -40.4236 O   0  0  0  0  0  0  0  0  0  0  0  0
  -16.6560   18.5711  -39.1976 C   0  0  2  0  0  0  0  0  0  0  0  0
  -15.4130   17.8567  -39.2545 N   0  0  0  0  0  0  0  0  0  0  0  0
  -15.3193   17.0165  -38.0560 C   0  0  1  0  0  0  0  0  0  0  0  0
  -13.9967   16.7173  -37.5115 C   0  0  0  0  0  0  0  0  0  0  0  0
  -12.9276   17.0987  -38.5223 C   0  0  0  0  0  0  0  0  0  0  0  0
  -12.8382   18.6008  -38.6747 C   0  0  0  0  0  0  0  0  0  0  0  0
  -13.4292   16.6102  -39.9113 C   0  0  0  0  0  0  0  0  0  0  0  0
  -11.6277   16.4100  -38.3080 C   0  0  0  0  0  0  0  0  0  0  0  0
  -16.3312   17.6617  -37.1495 C   0  0  2  0  0  0  0  0  0  0  0  0
  -15.4813   19.0284  -36.9919 C   0  0  0  0  0  0  0  0  0  0  0  0
  -14.8484   20.0327  -36.8710 N   0  0  0  0  0  0  0  0  0  0  0  0
  -16.4903   17.2017  -35.7966 C   0  0  0  0  0  0  0  0  0  0  0  0
  -17.5570   16.4491  -35.3745 C   0  0  0  0  0  0  0  0  0  0  0  0
  -17.6128   15.7798  -34.1575 C   0  0  0  0  0  0  0  0  0  0  0  0
  -16.5175   15.8758  -33.2825 C   0  0  0  0  0  0  0  0  0  0  0  0
  -16.5044   15.0284  -31.7568 Cl  0  0  0  0  0  0  0  0  0  0  0  0
  -15.4307   16.6324  -33.6634 C   0  0  0  0  0  0  0  0  0  0  0  0
  -15.4480   17.2618  -34.8831 C   0  0  0  0  0  0  0  0  0  0  0  0
  -14.3077   18.0067  -35.1403 F   0  0  0  0  0  0  0  0  0  0  0  0
  -17.4314   17.9022  -38.0617 C   0  0  1  0  0  0  0  0  0  0  0  0
  -18.6172   18.5382  -37.6381 C   0  0  0  0  0  0  0  0  0  0  0  0
  -18.6524   19.9314  -37.2584 C   0  0  0  0  0  0  0  0  0  0  0  0
  -19.7546   20.5376  -36.7997 C   0  0  0  0  0  0  0  0  0  0  0  0
  -20.9683   19.8490  -36.6686 C   0  0  0  0  0  0  0  0  0  0  0  0
  -20.9910   18.5406  -37.0277 C   0  0  0  0  0  0  0  0  0  0  0  0
  -22.5221   17.6906  -36.8712 Cl  0  0  0  0  0  0  0  0  0  0  0  0
  -19.8477   17.9468  -37.4875 C   0  0  0  0  0  0  0  0  0  0  0  0
  -20.0087   16.6239  -37.8548 F   0  0  0  0  0  0  0  0  0  0  0  0
  1  2  1  0
  2  3  1  0
  3  4  2  0
  4  5  1  0
  5  6  1  0
  6  7  2  0
  6  8  1  0
  5  9  2  0
  9 10  1  0
 10 11  2  0
 11 12  1  0
 12 13  1  0
 13 14  2  0
 15 13  1  6
 15 16  1  0
 16 17  1  0
 17 18  1  1
 18 19  1  0
 19 20  1  0
 19 21  1  0
 19 22  1  0
 17 23  1  0
 23 24  1  1
 24 25  3  0
 23 26  1  0
 26 27  2  0
 27 28  1  0
 28 29  2  0
 29 30  1  0
 29 31  1  0
 31 32  2  0
 32 33  1  0
 23 34  1  0
 34 35  1  1
 35 36  2  0
 36 37  1  0
 37 38  2  0
 38 39  1  0
 39 40  1  0
 39 41  2  0
 41 42  1  0
 11  3  1  0
 34 15  1  0
 41 35  1  0
 32 26  1  0
M  END
$$$$
