
     RDKit          3D

 16 17  0  0  0  0  0  0  0  0999 V2000
  -21.0937   33.1238  -24.8373 O   0  0  0  0  0  0  0  0  0  0  0  0
  -20.1152   33.4903  -25.5199 C   0  0  0  0  0  0  0  0  0  0  0  0
  -20.3094   34.2099  -26.6852 O   0  0  0  0  0  0  0  0  0  0  0  0
  -18.7240   33.1740  -25.1155 C   0  0  0  0  0  0  0  0  0  0  0  0
  -18.4998   33.7169  -23.7210 C   0  0  0  0  0  0  0  0  0  0  0  0
  -18.6642   35.2081  -23.7107 C   0  0  0  0  0  0  0  0  0  0  0  0
  -18.1177   35.8194  -22.4463 C   0  0  0  0  0  0  0  0  0  0  0  0
  -18.3044   37.2894  -22.4303 C   0  0  2  0  0  0  0  0  0  0  0  0
  -18.0168   38.0010  -20.7663 S   0  0  0  0  0  0  0  0  0  0  0  0
  -19.3661   39.2463  -20.7862 C   0  0  0  0  0  0  0  0  0  0  0  0
  -19.7872   39.1926  -22.2297 C   0  0  2  0  0  0  0  0  0  0  0  0
  -21.2362   39.3713  -22.2314 N   0  0  0  0  0  0  0  0  0  0  0  0
  -21.7316   38.1252  -21.7404 C   0  0  0  0  0  0  0  0  0  0  0  0
  -22.8655   37.9065  -21.2206 O   0  0  0  0  0  0  0  0  0  0  0  0
  -20.7237   37.1233  -21.9277 N   0  0  0  0  0  0  0  0  0  0  0  0
  -19.6918   37.7575  -22.6983 C   0  0  2  0  0  0  0  0  0  0  0  0
  1  2  2  0
  2  3  1  0
  2  4  1  0
  4  5  1  0
  5  6  1  0
  6  7  1  0
  8  7  1  1
  8  9  1  0
  9 10  1  0
 11 10  1  1
 11 12  1  0
 12 13  1  0
 13 14  2  0
 13 15  1  0
 16 15  1  1
 16  8  1  0
 16 11  1  0
M  END
$$$$
