
     RDKit          3D

 39 42  0  0  0  0  0  0  0  0999 V2000
  -19.2942   44.4954  -21.0839 C   0  0  0  0  0  0  0  0  0  0  0  0
  -19.4706   42.9784  -21.3312 C   0  0  0  0  0  0  0  0  0  0  0  0
  -20.7463   42.6114  -20.6974 C   0  0  0  0  0  0  0  0  0  0  0  0
  -18.2955   42.2666  -21.1121 N   0  0  0  0  0  0  0  0  0  0  0  0
  -17.0585   42.6800  -21.6065 C   0  0  0  0  0  0  0  0  0  0  0  0
  -16.4400   43.9159  -21.0218 C   0  0  0  0  0  0  0  0  0  0  0  0
  -15.6309   43.5431  -19.7932 C   0  0  0  0  0  0  0  0  0  0  0  0
  -14.9924   44.6843  -19.1925 N   0  0  0  0  0  0  0  0  0  0  0  0
  -14.2208   44.5825  -17.9753 C   0  0  0  0  0  0  0  0  0  0  0  0
  -14.6999   43.8585  -17.1013 O   0  0  0  0  0  0  0  0  0  0  0  0
  -13.0128   45.2683  -17.8105 N   0  0  0  0  0  0  0  0  0  0  0  0
  -12.3671   45.4431  -16.5730 C   0  0  0  0  0  0  0  0  0  0  0  0
  -12.6993   44.8815  -15.3770 C   0  0  0  0  0  0  0  0  0  0  0  0
  -11.9910   45.1357  -14.2032 C   0  0  0  0  0  0  0  0  0  0  0  0
  -10.9066   45.9773  -14.1981 C   0  0  0  0  0  0  0  0  0  0  0  0
  -10.1612   46.2497  -12.9550 C   0  0  0  0  0  0  0  0  0  0  0  0
   -9.8766   44.9241  -12.2500 C   0  0  0  0  0  0  0  0  0  0  0  0
   -8.8576   46.9384  -13.2033 C   0  0  0  0  0  0  0  0  0  0  0  0
  -11.0693   47.0402  -12.0317 C   0  0  0  0  0  0  0  0  0  0  0  0
  -10.5515   46.5555  -15.3945 C   0  0  0  0  0  0  0  0  0  0  0  0
  -11.2578   46.2983  -16.5452 C   0  0  0  0  0  0  0  0  0  0  0  0
  -18.4295   40.8637  -20.9424 C   0  0  0  0  0  0  0  0  0  0  0  0
  -18.2865   40.0165  -22.1804 C   0  0  1  0  0  0  0  0  0  0  0  0
  -17.8633   38.7466  -21.9316 O   0  0  0  0  0  0  0  0  0  0  0  0
  -18.7653   37.8125  -22.3464 C   0  0  1  0  0  0  0  0  0  0  0  0
  -18.7397   36.6392  -21.4928 N   0  0  0  0  0  0  0  0  0  0  0  0
  -17.9904   36.4255  -20.3937 C   0  0  0  0  0  0  0  0  0  0  0  0
  -18.2798   35.1853  -19.8855 C   0  0  0  0  0  0  0  0  0  0  0  0
  -19.2416   34.6234  -20.7065 C   0  0  0  0  0  0  0  0  0  0  0  0
  -19.9139   33.4259  -20.7142 C   0  0  0  0  0  0  0  0  0  0  0  0
  -19.6497   32.4708  -19.7065 N   0  0  0  0  0  0  0  0  0  0  0  0
  -20.8103   33.1575  -21.6599 N   0  0  0  0  0  0  0  0  0  0  0  0
  -21.0826   34.0451  -22.6302 C   0  0  0  0  0  0  0  0  0  0  0  0
  -20.4198   35.2124  -22.6136 N   0  0  0  0  0  0  0  0  0  0  0  0
  -19.5010   35.5535  -21.6906 C   0  0  0  0  0  0  0  0  0  0  0  0
  -20.0946   38.5268  -22.2627 C   0  0  2  0  0  0  0  0  0  0  0  0
  -21.0463   37.9408  -23.0969 O   0  0  0  0  0  0  0  0  0  0  0  0
  -19.7027   39.9026  -22.7585 C   0  0  2  0  0  0  0  0  0  0  0  0
  -19.6851   39.8875  -24.1493 O   0  0  0  0  0  0  0  0  0  0  0  0
  1  2  1  0
  2  3  1  0
  2  4  1  0
  4  5  1  0
  5  6  1  0
  6  7  1  0
  7  8  1  0
  8  9  1  0
  9 10  2  0
  9 11  1  0
 11 12  1  0
 12 13  2  0
 13 14  1  0
 14 15  2  0
 15 16  1  0
 16 17  1  0
 16 18  1  0
 16 19  1  0
 15 20  1  0
 20 21  2  0
  4 22  1  0
 23 22  1  1
 23 24  1  0
 24 25  1  0
 25 26  1  1
 26 27  1  0
 27 28  2  0
 28 29  1  0
 29 30  2  0
 30 31  1  0
 30 32  1  0
 32 33  2  0
 33 34  1  0
 34 35  2  0
 25 36  1  0
 36 37  1  6
 36 38  1  0
 38 39  1  6
 21 12  1  0
 38 23  1  0
 35 26  1  0
 35 29  1  0
M  END
$$$$
