
     RDKit          3D

 29 32  0  0  0  0  0  0  0  0999 V2000
  -13.0083   49.4309  -15.8985 C   0  0  0  0  0  0  0  0  0  0  0  0
  -12.8623   48.3648  -16.8878 N   0  0  0  0  0  0  0  0  0  0  0  0
  -13.4874   47.1097  -16.7459 C   0  0  0  0  0  0  0  0  0  0  0  0
  -14.1416   46.8408  -15.7010 O   0  0  0  0  0  0  0  0  0  0  0  0
  -13.3608   46.1380  -17.8257 C   0  0  0  0  0  0  0  0  0  0  0  0
  -14.0268   44.9287  -17.7822 C   0  0  0  0  0  0  0  0  0  0  0  0
  -13.8742   44.0482  -18.8227 C   0  0  0  0  0  0  0  0  0  0  0  0
  -14.6030   42.7276  -18.7618 C   0  0  0  0  0  0  0  0  0  0  0  0
  -15.7349   42.7815  -19.3653 O   0  0  0  0  0  0  0  0  0  0  0  0
  -16.8764   42.8202  -19.9844 C   0  0  0  0  0  0  0  0  0  0  0  0
  -17.4300   44.0098  -20.3962 N   0  0  0  0  0  0  0  0  0  0  0  0
  -18.5778   44.0991  -21.0230 N   0  0  0  0  0  0  0  0  0  0  0  0
  -19.3321   43.0320  -21.3275 C   0  0  0  0  0  0  0  0  0  0  0  0
  -20.5750   43.1423  -22.0035 N   0  0  0  0  0  0  0  0  0  0  0  0
  -21.1202   44.3599  -22.4458 C   0  0  0  0  0  0  0  0  0  0  0  0
  -20.4872   45.5604  -22.1948 C   0  0  0  0  0  0  0  0  0  0  0  0
  -21.0280   46.7739  -22.6347 C   0  0  0  0  0  0  0  0  0  0  0  0
  -22.2278   46.7896  -23.3411 C   0  0  0  0  0  0  0  0  0  0  0  0
  -22.8886   48.3241  -23.8836 Cl  0  0  0  0  0  0  0  0  0  0  0  0
  -22.8458   45.5894  -23.5834 C   0  0  0  0  0  0  0  0  0  0  0  0
  -22.3067   44.3748  -23.1443 C   0  0  0  0  0  0  0  0  0  0  0  0
  -18.8531   41.7960  -20.9515 C   0  0  0  0  0  0  0  0  0  0  0  0
  -19.3497   40.5065  -21.0957 C   0  0  0  0  0  0  0  0  0  0  0  0
  -18.4124   39.6803  -20.5119 C   0  0  0  0  0  0  0  0  0  0  0  0
  -17.4144   40.4312  -20.0460 O   0  0  0  0  0  0  0  0  0  0  0  0
  -17.6552   41.6881  -20.2958 C   0  0  0  0  0  0  0  0  0  0  0  0
  -13.0765   44.3249  -19.9179 C   0  0  0  0  0  0  0  0  0  0  0  0
  -12.4271   45.5579  -19.9124 C   0  0  0  0  0  0  0  0  0  0  0  0
  -12.5922   46.4006  -18.8852 N   0  0  0  0  0  0  0  0  0  0  0  0
  1  2  1  0
  2  3  1  0
  3  4  2  0
  3  5  1  0
  5  6  2  0
  6  7  1  0
  7  8  1  0
  8  9  1  0
  9 10  1  0
 10 11  2  0
 11 12  1  0
 12 13  2  0
 13 14  1  0
 14 15  1  0
 15 16  2  0
 16 17  1  0
 17 18  2  0
 18 19  1  0
 18 20  1  0
 20 21  2  0
 13 22  1  0
 22 23  1  0
 23 24  2  0
 24 25  1  0
 25 26  1  0
  7 27  2  0
 27 28  1  0
 28 29  2  0
 29  5  1  0
 26 10  1  0
 21 15  1  0
 26 22  2  0
M  END
$$$$
