
     RDKit          3D

 16 16  0  0  0  0  0  0  0  0999 V2000
  -13.2826   12.6579  -29.7331 C   0  0  0  0  0  0  0  0  0  0  0  0
  -14.4875   12.2260  -29.0002 C   0  0  0  0  0  0  0  0  0  0  0  0
  -14.9698   13.1136  -27.8822 C   0  0  0  0  0  0  0  0  0  0  0  0
  -13.7059   13.9579  -27.5281 C   0  0  0  0  0  0  0  0  0  0  0  0
  -15.1801   12.2731  -26.6362 C   0  0  0  0  0  0  0  0  0  0  0  0
  -16.0767   13.9978  -28.2162 C   0  0  0  0  0  0  0  0  0  0  0  0
  -16.7816   14.3535  -27.1668 O   0  0  0  0  0  0  0  0  0  0  0  0
  -16.5344   14.5375  -29.4026 N   0  0  0  0  0  0  0  0  0  0  0  0
  -15.7657   14.2546  -30.5436 O   0  0  0  0  0  0  0  0  0  0  0  0
  -17.6286   15.4082  -29.7102 C   0  0  0  0  0  0  0  0  0  0  0  0
  -17.1564   16.8119  -30.0000 C   0  0  0  0  0  0  0  0  0  0  0  0
  -16.7333   17.6583  -29.0120 C   0  0  0  0  0  0  0  0  0  0  0  0
  -16.2825   18.9499  -29.3154 C   0  0  0  0  0  0  0  0  0  0  0  0
  -16.2891   19.3141  -30.6371 C   0  0  0  0  0  0  0  0  0  0  0  0
  -16.7133   18.4681  -31.6309 C   0  0  0  0  0  0  0  0  0  0  0  0
  -17.1510   17.2066  -31.3133 C   0  0  0  0  0  0  0  0  0  0  0  0
  1  2  1  0
  2  3  1  0
  3  4  1  0
  3  5  1  0
  3  6  1  0
  6  7  2  0
  6  8  1  0
  8  9  1  0
  8 10  1  0
 10 11  1  0
 11 12  2  0
 12 13  1  0
 13 14  2  0
 14 15  1  0
 15 16  2  0
 16 11  1  0
M  END
$$$$
