
     RDKit          3D

 44 47  0  0  0  0  0  0  0  0999 V2000
  -18.8621   15.1455  -36.8599 C   0  0  0  0  0  0  0  0  0  0  0  0
  -18.7926   16.2905  -37.8356 C   0  0  0  0  0  0  0  0  0  0  0  0
  -17.9510   17.3695  -37.4213 N   0  0  0  0  0  0  0  0  0  0  0  0
  -18.5424   18.3159  -36.5112 C   0  0  0  0  0  0  0  0  0  0  0  0
  -18.4561   18.2096  -35.1488 C   0  0  0  0  0  0  0  0  0  0  0  0
  -19.0785   19.1225  -34.2712 C   0  0  0  0  0  0  0  0  0  0  0  0
  -18.8969   18.9563  -32.8721 C   0  0  0  0  0  0  0  0  0  0  0  0
  -18.7500   18.8147  -31.6686 C   0  0  0  0  0  0  0  0  0  0  0  0
  -18.5812   18.6182  -30.2042 C   0  0  0  0  0  0  0  0  0  0  0  0
  -17.7791   17.4817  -29.9580 N   0  0  0  0  0  0  0  0  0  0  0  0
  -17.0139   17.4542  -28.7661 C   0  0  0  0  0  0  0  0  0  0  0  0
  -17.4176   16.2310  -27.9475 C   0  0  0  0  0  0  0  0  0  0  0  0
  -17.1643   15.0453  -28.6105 O   0  0  0  0  0  0  0  0  0  0  0  0
  -17.3267   15.1332  -29.9852 C   0  0  0  0  0  0  0  0  0  0  0  0
  -18.3579   16.2196  -30.2523 C   0  0  0  0  0  0  0  0  0  0  0  0
  -19.8067   20.1640  -34.8460 C   0  0  0  0  0  0  0  0  0  0  0  0
  -19.9010   20.2851  -36.1828 C   0  0  0  0  0  0  0  0  0  0  0  0
  -20.6580   21.3512  -36.8594 C   0  0  0  0  0  0  0  0  0  0  0  0
  -20.2321   21.7645  -37.9955 O   0  0  0  0  0  0  0  0  0  0  0  0
  -21.8204   21.9497  -36.3171 N   0  0  0  0  0  0  0  0  0  0  0  0
  -23.0716   21.6700  -36.9264 C   0  0  0  0  0  0  0  0  0  0  0  0
  -24.1960   22.5113  -36.5418 C   0  0  0  0  0  0  0  0  0  0  0  0
  -25.0377   22.1305  -35.5274 C   0  0  0  0  0  0  0  0  0  0  0  0
  -24.8586   20.8134  -34.8446 C   0  0  0  0  0  0  0  0  0  0  0  0
  -26.0922   22.9234  -35.0996 C   0  0  0  0  0  0  0  0  0  0  0  0
  -26.2894   24.1550  -35.7375 C   0  0  0  0  0  0  0  0  0  0  0  0
  -27.4164   24.9727  -35.2516 C   0  0  0  0  0  0  0  0  0  0  0  0
  -25.4591   24.4856  -36.7104 N   0  0  0  0  0  0  0  0  0  0  0  0
  -24.4252   23.7492  -37.1577 C   0  0  0  0  0  0  0  0  0  0  0  0
  -23.6483   24.0796  -38.0794 O   0  0  0  0  0  0  0  0  0  0  0  0
  -19.2585   19.3480  -37.0333 C   0  0  0  0  0  0  0  0  0  0  0  0
  -19.3593   19.5532  -38.4774 C   0  0  0  0  0  0  0  0  0  0  0  0
  -16.5981   17.5063  -37.8900 C   0  0  1  0  0  0  0  0  0  0  0  0
  -16.0162   16.2490  -38.4601 C   0  0  0  0  0  0  0  0  0  0  0  0
  -14.5558   16.5118  -38.8649 C   0  0  0  0  0  0  0  0  0  0  0  0
  -14.6429   17.5185  -39.9934 C   0  0  2  0  0  0  0  0  0  0  0  0
  -13.4981   17.6772  -40.7925 N   0  0  0  0  0  0  0  0  0  0  0  0
  -13.5748   17.3325  -42.1637 C   0  0  0  0  0  0  0  0  0  0  0  0
  -12.3562   17.1805  -40.0710 C   0  0  0  0  0  0  0  0  0  0  0  0
  -11.0672   17.8674  -40.3539 C   0  0  0  0  0  0  0  0  0  0  0  0
  -10.0481   16.9658  -40.5333 O   0  0  0  0  0  0  0  0  0  0  0  0
   -9.0076   17.4820  -41.2676 C   0  0  0  0  0  0  0  0  0  0  0  0
  -15.0935   18.8153  -39.3109 C   0  0  0  0  0  0  0  0  0  0  0  0
  -16.5583   18.5654  -39.0005 C   0  0  0  0  0  0  0  0  0  0  0  0
  1  2  1  0
  2  3  1  0
  3  4  1  0
  4  5  2  0
  5  6  1  0
  6  7  1  0
  7  8  3  0
  8  9  1  0
  9 10  1  0
 10 11  1  0
 11 12  1  0
 12 13  1  0
 13 14  1  0
 14 15  1  0
  6 16  2  0
 16 17  1  0
 17 18  1  0
 18 19  2  0
 18 20  1  0
 20 21  1  0
 21 22  1  0
 22 23  2  0
 23 24  1  0
 23 25  1  0
 25 26  2  0
 26 27  1  0
 26 28  1  0
 28 29  1  0
 29 30  2  0
 17 31  2  0
 31 32  1  0
 33  3  1  6
 33 34  1  0
 34 35  1  0
 35 36  1  0
 36 37  1  1
 37 38  1  0
 37 39  1  0
 39 40  1  0
 40 41  1  0
 41 42  1  0
 36 43  1  0
 43 44  1  0
 31  4  1  0
 44 33  1  0
 15 10  1  0
 29 22  1  0
M  END
$$$$
