
     RDKit          3D

 30 34  0  0  0  0  0  0  0  0999 V2000
  -16.9283   46.6316  -22.1180 C   0  0  0  0  0  0  0  0  0  0  0  0
  -16.0084   45.5056  -21.7016 C   0  0  0  0  0  0  0  0  0  0  0  0
  -16.8381   44.5224  -20.9137 C   0  0  0  0  0  0  0  0  0  0  0  0
  -16.4504   43.9918  -19.7212 C   0  0  0  0  0  0  0  0  0  0  0  0
  -17.2608   43.0995  -19.0091 C   0  0  0  0  0  0  0  0  0  0  0  0
  -18.4682   42.7532  -19.5247 C   0  0  0  0  0  0  0  0  0  0  0  0
  -19.5440   41.6003  -18.7621 S   0  0  0  0  0  6  0  0  0  0  0  0
  -20.9733   41.9504  -18.8495 O   0  0  0  0  0  0  0  0  0  0  0  0
  -19.1202   41.5769  -17.2817 O   0  0  0  0  0  0  0  0  0  0  0  0
  -19.1515   40.0424  -19.5054 C   0  0  0  0  0  0  0  0  0  0  0  0
  -18.3757   39.0821  -18.9910 N   0  0  0  0  0  0  0  0  0  0  0  0
  -18.2578   38.1122  -19.8631 N   0  0  0  0  0  0  0  0  0  0  0  0
  -18.9360   38.3953  -20.9556 N   0  0  0  0  0  0  0  0  0  0  0  0
  -19.5009   39.5782  -20.7711 C   0  0  0  0  0  0  0  0  0  0  0  0
  -20.2170   40.2327  -21.7013 N   0  0  0  0  0  0  0  0  0  0  0  0
  -20.3662   39.6359  -22.9329 C   0  0  0  0  0  0  0  0  0  0  0  0
  -20.8244   40.1839  -24.0618 N   0  0  0  0  0  0  0  0  0  0  0  0
  -21.3054   40.7589  -25.2464 C   0  0  0  0  0  0  0  0  0  0  0  0
  -20.3251   41.8128  -25.6572 C   0  0  0  0  0  0  0  0  0  0  0  0
  -20.2561   42.6558  -26.6804 C   0  0  0  0  0  0  0  0  0  0  0  0
  -19.2204   43.5004  -26.8254 C   0  0  0  0  0  0  0  0  0  0  0  0
  -18.2189   43.4533  -25.8548 C   0  0  0  0  0  0  0  0  0  0  0  0
  -18.8119   42.1540  -24.7123 S   0  0  0  0  0  0  0  0  0  0  0  0
  -19.7563   38.3819  -23.0873 C   0  0  0  0  0  0  0  0  0  0  0  0
  -19.7352   37.2824  -24.5537 S   0  0  0  0  0  0  0  0  0  0  0  0
  -18.6914   35.9660  -23.6993 C   0  0  0  0  0  0  0  0  0  0  0  0
  -18.5112   36.5110  -22.4736 C   0  0  0  0  0  0  0  0  0  0  0  0
  -19.0338   37.7003  -22.1635 C   0  0  0  0  0  0  0  0  0  0  0  0
  -18.8909   43.2797  -20.7382 C   0  0  0  0  0  0  0  0  0  0  0  0
  -18.0861   44.1456  -21.4141 C   0  0  0  0  0  0  0  0  0  0  0  0
  1  2  1  0
  2  3  1  0
  3  4  2  0
  4  5  1  0
  5  6  2  0
  6  7  1  0
  7  8  2  0
  7  9  2  0
  7 10  1  0
 10 11  1  0
 11 12  2  0
 12 13  1  0
 13 14  1  0
 14 15  1  0
 15 16  2  0
 16 17  1  0
 17 18  1  0
 18 19  1  0
 19 20  2  0
 20 21  1  0
 21 22  2  0
 22 23  1  0
 16 24  1  0
 24 25  1  0
 25 26  1  0
 26 27  2  0
 27 28  1  0
  6 29  1  0
 29 30  2  0
 30  3  1  0
 14 10  2  0
 23 19  1  0
 28 24  2  0
 28 13  1  0
M  END
$$$$
