
     RDKit          3D

 19 21  0  0  0  0  0  0  0  0999 V2000
  -14.8607   46.0818  -20.6597 C   0  0  0  0  0  0  0  0  0  0  0  0
  -15.7712   45.5154  -21.5644 O   0  0  0  0  0  0  0  0  0  0  0  0
  -16.4267   44.3204  -21.3924 C   0  0  0  0  0  0  0  0  0  0  0  0
  -16.8802   44.0041  -20.1292 C   0  0  0  0  0  0  0  0  0  0  0  0
  -17.5512   42.8103  -19.8873 C   0  0  0  0  0  0  0  0  0  0  0  0
  -17.7943   41.8961  -20.8792 C   0  0  0  0  0  0  0  0  0  0  0  0
  -18.4920   40.6319  -20.6790 C   0  0  0  0  0  0  0  0  0  0  0  0
  -18.9458   40.2646  -19.4380 C   0  0  0  0  0  0  0  0  0  0  0  0
  -19.6175   39.0498  -19.2391 C   0  0  0  0  0  0  0  0  0  0  0  0
  -20.0421   38.6837  -18.1328 O   0  0  0  0  0  0  0  0  0  0  0  0
  -19.7891   38.2619  -20.3550 C   0  0  0  0  0  0  0  0  0  0  0  0
  -20.4399   37.0327  -20.2900 C   0  0  0  0  0  0  0  0  0  0  0  0
  -20.6254   36.2236  -21.3920 C   0  0  0  0  0  0  0  0  0  0  0  0
  -20.1509   36.6365  -22.6198 C   0  0  0  0  0  0  0  0  0  0  0  0
  -19.5028   37.8505  -22.7090 C   0  0  0  0  0  0  0  0  0  0  0  0
  -19.3189   38.6647  -21.5871 C   0  0  0  0  0  0  0  0  0  0  0  0
  -18.7021   39.8175  -21.6783 O   0  0  0  0  0  0  0  0  0  0  0  0
  -17.3309   42.2252  -22.1571 C   0  0  0  0  0  0  0  0  0  0  0  0
  -16.6664   43.4075  -22.3967 C   0  0  0  0  0  0  0  0  0  0  0  0
  1  2  1  0
  2  3  1  0
  3  4  2  0
  4  5  1  0
  5  6  2  0
  6  7  1  0
  7  8  2  0
  8  9  1  0
  9 10  2  0
  9 11  1  0
 11 12  2  0
 12 13  1  0
 13 14  2  0
 14 15  1  0
 15 16  2  0
 16 17  1  0
  6 18  1  0
 18 19  2  0
 19  3  1  0
 17  7  1  0
 16 11  1  0
M  END
$$$$
