
     RDKit          3D

 26 29  0  0  0  0  0  0  0  0999 V2000
  -17.1441   40.9056  -22.8442 C   0  0  0  0  0  0  0  0  0  0  0  0
  -18.4796   40.1475  -22.6952 C   0  0  1  0  0  0  0  0  0  0  0  0
  -18.3602   39.4442  -21.3569 C   0  0  0  0  0  0  0  0  0  0  0  0
  -17.5945   38.2597  -21.5941 N   0  0  0  0  0  0  0  0  0  0  0  0
  -17.8435   36.9365  -21.2555 C   0  0  0  0  0  0  0  0  0  0  0  0
  -16.8055   36.2420  -20.9423 O   0  0  0  0  0  0  0  0  0  0  0  0
  -19.1138   36.2424  -21.2103 C   0  0  0  0  0  0  0  0  0  0  0  0
  -19.4331   35.0563  -20.5424 C   0  0  0  0  0  0  0  0  0  0  0  0
  -20.7370   34.8139  -20.7848 N   0  0  0  0  0  0  0  0  0  0  0  0
  -21.2527   35.7573  -21.5514 N   0  0  0  0  0  0  0  0  0  0  0  0
  -22.5044   35.9730  -22.0601 C   0  0  0  0  0  0  0  0  0  0  0  0
  -22.7256   37.0875  -22.8339 C   0  0  0  0  0  0  0  0  0  0  0  0
  -21.6764   37.9928  -23.0990 C   0  0  0  0  0  0  0  0  0  0  0  0
  -20.5042   37.6696  -22.5464 N   0  0  0  0  0  0  0  0  0  0  0  0
  -20.2594   36.6195  -21.8048 C   0  0  0  0  0  0  0  0  0  0  0  0
  -21.9373   39.1360  -23.8717 N   0  0  0  0  0  0  0  0  0  0  0  0
  -21.1951   39.6947  -24.9761 C   0  0  2  0  0  0  0  0  0  0  0  0
  -20.1032   38.8485  -25.5216 C   0  0  0  0  0  0  0  0  0  0  0  0
  -20.8796   41.1272  -24.8225 C   0  0  0  0  0  0  0  0  0  0  0  0
  -21.3969   41.9729  -25.7859 C   0  0  0  0  0  0  0  0  0  0  0  0
  -21.2572   43.3465  -25.7872 C   0  0  0  0  0  0  0  0  0  0  0  0
  -21.8165   44.0828  -26.8024 F   0  0  0  0  0  0  0  0  0  0  0  0
  -20.5615   43.9339  -24.7724 C   0  0  0  0  0  0  0  0  0  0  0  0
  -20.0361   43.1250  -23.8042 C   0  0  0  0  0  0  0  0  0  0  0  0
  -20.1595   41.7148  -23.7751 C   0  0  0  0  0  0  0  0  0  0  0  0
  -19.5887   40.9914  -22.7573 O   0  0  0  0  0  0  0  0  0  0  0  0
  2  1  1  1
  2  3  1  0
  3  4  1  0
  4  5  1  0
  5  6  2  0
  5  7  1  0
  7  8  1  0
  8  9  2  0
  9 10  1  0
 10 11  1  0
 11 12  2  0
 12 13  1  0
 13 14  2  0
 14 15  1  0
 13 16  1  0
 16 17  1  0
 17 18  1  1
 17 19  1  0
 19 20  2  0
 20 21  1  0
 21 22  1  0
 21 23  2  0
 23 24  1  0
 24 25  2  0
 25 26  1  0
 26  2  1  0
 15  7  2  0
 25 19  1  0
 15 10  1  0
M  END
$$$$
