
     RDKit          3D

 12 12  0  0  0  0  0  0  0  0999 V2000
  -16.8549   32.7343  -25.7116 C   0  0  0  0  0  0  0  0  0  0  0  0
  -17.6484   33.6852  -24.8633 C   0  0  0  0  0  0  0  0  0  0  0  0
  -18.9371   33.1839  -24.3660 C   0  0  0  0  0  0  0  0  0  0  0  0
  -19.9243   34.1845  -23.8867 C   0  0  0  0  0  0  0  0  0  0  0  0
  -19.4918   35.0137  -22.7891 C   0  0  0  0  0  0  0  0  0  0  0  0
  -18.8415   36.2173  -22.8527 C   0  0  0  0  0  0  0  0  0  0  0  0
  -18.6973   36.6627  -21.5575 C   0  0  0  0  0  0  0  0  0  0  0  0
  -18.0537   37.9214  -21.1252 C   0  0  0  0  0  0  0  0  0  0  0  0
  -18.1153   38.2382  -19.9148 O   0  0  0  0  0  0  0  0  0  0  0  0
  -17.3900   38.7563  -22.0039 O   0  0  0  0  0  0  0  0  0  0  0  0
  -19.2501   35.7428  -20.7465 N   0  0  0  0  0  0  0  0  0  0  0  0
  -19.7219   34.7615  -21.4935 N   0  0  0  0  0  0  0  0  0  0  0  0
  1  2  1  0
  2  3  1  0
  3  4  1  0
  4  5  1  0
  5  6  1  0
  6  7  2  0
  7  8  1  0
  8  9  2  0
  8 10  1  0
  7 11  1  0
 11 12  1  0
 12  5  2  0
M  END
$$$$
