
     RDKit          3D

 14 14  0  0  0  0  0  0  0  0999 V2000
  -16.4753   35.6987  -20.8649 N   0  0  0  0  0  0  0  0  0  0  0  0
  -17.3204   36.3512  -21.3195 C   0  0  0  0  0  0  0  0  0  0  0  0
  -18.3760   37.1550  -21.8607 C   0  0  0  0  0  0  0  0  0  0  0  0
  -18.1061   38.2599  -22.7434 C   0  0  0  0  0  0  0  0  0  0  0  0
  -17.8934   39.1588  -23.4628 N   0  0  0  0  0  0  0  0  0  0  0  0
  -19.6113   36.8675  -21.5379 C   0  0  0  0  0  0  0  0  0  0  0  0
  -20.8084   37.4544  -22.1314 C   0  0  0  0  0  0  0  0  0  0  0  0
  -21.0272   38.8383  -22.1078 C   0  0  0  0  0  0  0  0  0  0  0  0
  -22.1620   39.4103  -22.6497 C   0  0  0  0  0  0  0  0  0  0  0  0
  -23.1401   38.6108  -23.2464 C   0  0  0  0  0  0  0  0  0  0  0  0
  -24.2835   39.1619  -23.7947 O   0  0  0  0  0  0  0  0  0  0  0  0
  -22.9503   37.2623  -23.2814 C   0  0  0  0  0  0  0  0  0  0  0  0
  -23.9083   36.4535  -23.8675 O   0  0  0  0  0  0  0  0  0  0  0  0
  -21.7971   36.7077  -22.7284 C   0  0  0  0  0  0  0  0  0  0  0  0
  1  2  3  0
  2  3  1  0
  3  4  1  0
  4  5  3  0
  3  6  2  3
  6  7  1  0
  7  8  2  0
  8  9  1  0
  9 10  2  0
 10 11  1  0
 10 12  1  0
 12 13  1  0
 12 14  2  0
 14  7  1  0
M  END
$$$$
