
     RDKit          3D

 32 35  0  0  0  0  0  0  0  0999 V2000
   -5.9453    6.0428  -42.0596 C   0  0  0  0  0  0  0  0  0  0  0  0
   -4.7690    6.6156  -41.8801 C   0  0  0  0  0  0  0  0  0  0  0  0
   -4.2081    6.8584  -40.5618 C   0  0  0  0  0  0  0  0  0  0  0  0
   -5.0481    7.1474  -39.6448 O   0  0  0  0  0  0  0  0  0  0  0  0
   -2.8435    6.7927  -40.2619 N   0  0  0  0  0  0  0  0  0  0  0  0
   -1.7869    6.6729  -41.2559 C   0  0  0  0  0  0  0  0  0  0  0  0
   -0.7098    7.6962  -40.9241 C   0  0  0  0  0  0  0  0  0  0  0  0
   -1.3012    8.7698  -40.0073 C   0  0  0  0  0  0  0  0  0  0  0  0
   -0.3549    9.9159  -39.9723 C   0  0  0  0  0  0  0  0  0  0  0  0
    1.0219    9.5917  -39.7660 N   0  0  0  0  0  0  0  0  0  0  0  0
    1.6847    9.4731  -38.5483 C   0  0  0  0  0  0  0  0  0  0  0  0
    1.1877    8.8680  -37.4457 N   0  0  0  0  0  0  0  0  0  0  0  0
    1.8544    8.7424  -36.2883 C   0  0  0  0  0  0  0  0  0  0  0  0
    3.0983    9.2370  -36.1792 N   0  0  0  0  0  0  0  0  0  0  0  0
    3.6516    9.8591  -37.2620 C   0  0  0  0  0  0  0  0  0  0  0  0
    4.9681   10.3977  -37.1916 N   0  0  0  0  0  0  0  0  0  0  0  0
    2.9835    9.9977  -38.4578 C   0  0  0  0  0  0  0  0  0  0  0  0
    3.6005   10.6575  -39.5913 C   0  0  0  0  0  0  0  0  0  0  0  0
    4.2477    9.9573  -40.5878 C   0  0  0  0  0  0  0  0  0  0  0  0
    4.8439   10.5493  -41.6661 C   0  0  0  0  0  0  0  0  0  0  0  0
    4.8138   11.9199  -41.7935 C   0  0  0  0  0  0  0  0  0  0  0  0
    5.4297   12.4720  -42.8985 O   0  0  0  0  0  0  0  0  0  0  0  0
    4.8582   13.6118  -43.4701 C   0  0  0  0  0  0  0  0  0  0  0  0
    3.4744   13.6982  -43.5258 C   0  0  0  0  0  0  0  0  0  0  0  0
    2.8672   14.8036  -44.0798 C   0  0  0  0  0  0  0  0  0  0  0  0
    3.6538   15.8403  -44.5876 C   0  0  0  0  0  0  0  0  0  0  0  0
    5.0326   15.7718  -44.5411 C   0  0  0  0  0  0  0  0  0  0  0  0
    5.5931   14.6498  -43.9788 C   0  0  0  0  0  0  0  0  0  0  0  0
    4.1765   12.6543  -40.8188 C   0  0  0  0  0  0  0  0  0  0  0  0
    3.5810   12.0302  -39.7371 C   0  0  0  0  0  0  0  0  0  0  0  0
   -1.6261    8.1510  -38.6892 C   0  0  0  0  0  0  0  0  0  0  0  0
   -2.4142    6.8452  -38.8790 C   0  0  0  0  0  0  0  0  0  0  0  0
  1  2  2  0
  2  3  1  0
  3  4  2  0
  3  5  1  0
  5  6  1  0
  6  7  1  0
  7  8  1  0
  8  9  1  0
  9 10  1  0
 10 11  1  0
 11 12  2  0
 12 13  1  0
 13 14  2  0
 14 15  1  0
 15 16  1  0
 15 17  2  0
 17 18  1  0
 18 19  2  0
 19 20  1  0
 20 21  2  0
 21 22  1  0
 22 23  1  0
 23 24  2  0
 24 25  1  0
 25 26  2  0
 26 27  1  0
 27 28  2  0
 21 29  1  0
 29 30  2  0
  8 31  1  0
 31 32  1  0
 32  5  1  0
 17 11  1  0
 30 18  1  0
 28 23  1  0
M  END
$$$$
