
     RDKit          3D

 23 24  0  0  0  0  0  0  0  0999 V2000
  -20.1399   13.6407  -33.8370 C   0  0  0  0  0  0  0  0  0  0  0  0
  -21.0276   13.9664  -32.6538 C   0  0  0  0  0  0  0  0  0  0  0  0
  -20.3148   13.5345  -31.3907 C   0  0  0  0  0  0  0  0  0  0  0  0
  -22.2823   13.1437  -32.7762 C   0  0  0  0  0  0  0  0  0  0  0  0
  -21.3991   15.3941  -32.6216 C   0  0  0  0  0  0  0  0  0  0  0  0
  -21.0459   16.2715  -31.6291 C   0  0  0  0  0  0  0  0  0  0  0  0
  -21.4089   17.6265  -31.6198 C   0  0  0  0  0  0  0  0  0  0  0  0
  -20.9424   18.4943  -30.5065 C   0  0  0  0  0  0  0  0  0  0  0  0
  -19.5352   18.9484  -30.5995 C   0  0  0  0  0  0  0  0  0  0  0  0
  -19.1210   20.0635  -29.7515 C   0  0  0  0  0  0  0  0  0  0  0  0
  -19.9612   20.7330  -29.0945 O   0  0  0  0  0  0  0  0  0  0  0  0
  -17.7310   20.3673  -29.6945 N   0  0  0  0  0  0  0  0  0  0  0  0
  -16.9397   21.3602  -29.0141 C   0  0  0  0  0  0  0  0  0  0  0  0
  -15.9321   21.2443  -30.1659 C   0  0  0  0  0  0  0  0  0  0  0  0
  -16.5295   19.8355  -30.2732 C   0  0  0  0  0  0  0  0  0  0  0  0
  -22.1627   18.0704  -32.6834 C   0  0  0  0  0  0  0  0  0  0  0  0
  -22.5396   17.2213  -33.7018 C   0  0  0  0  0  0  0  0  0  0  0  0
  -23.3479   17.7606  -34.8130 C   0  0  0  0  0  0  0  0  0  0  0  0
  -23.5126   19.2581  -34.5330 C   0  0  0  0  0  0  0  0  0  0  0  0
  -22.6894   17.6265  -36.1466 C   0  0  0  0  0  0  0  0  0  0  0  0
  -24.7127   17.1196  -34.8587 C   0  0  0  0  0  0  0  0  0  0  0  0
  -22.1542   15.9036  -33.6555 C   0  0  0  0  0  0  0  0  0  0  0  0
  -22.5515   15.0827  -34.6945 O   0  0  0  0  0  0  0  0  0  0  0  0
  1  2  1  0
  2  3  1  0
  2  4  1  0
  2  5  1  0
  5  6  2  0
  6  7  1  0
  7  8  1  0
  8  9  1  0
  9 10  1  0
 10 11  2  0
 10 12  1  0
 12 13  1  0
 13 14  1  0
 14 15  1  0
  7 16  2  0
 16 17  1  0
 17 18  1  0
 18 19  1  0
 18 20  1  0
 18 21  1  0
 17 22  2  0
 22 23  1  0
 22  5  1  0
 15 12  1  0
M  END
$$$$
