
     RDKit          3D

 30 31  0  0  0  0  0  0  0  0999 V2000
  -10.7852   -6.9889  -35.1114 C   0  0  0  0  0  0  0  0  0  0  0  0
  -12.2378   -6.7907  -34.8228 C   0  0  0  0  0  0  0  0  0  0  0  0
  -12.8747   -7.6854  -33.9881 C   0  0  0  0  0  0  0  0  0  0  0  0
  -14.2150   -7.4861  -33.7338 C   0  0  0  0  0  0  0  0  0  0  0  0
  -14.8913   -6.4257  -34.2979 C   0  0  0  0  0  0  0  0  0  0  0  0
  -14.2628   -5.5174  -35.1399 C   0  0  0  0  0  0  0  0  0  0  0  0
  -15.0130   -4.3789  -35.7400 C   0  0  0  0  0  0  0  0  0  0  0  0
  -15.0062   -3.1972  -34.9411 N   0  0  0  0  0  0  0  0  0  0  0  0
  -13.7225   -2.6422  -34.6524 C   0  0  0  0  0  0  0  0  0  0  0  0
  -13.8224   -1.6938  -33.4799 C   0  0  0  0  0  0  0  0  0  0  0  0
  -15.0684   -0.9960  -33.4264 N   0  0  0  0  0  0  0  0  0  0  0  0
  -14.9900    0.0008  -32.3897 C   0  0  0  0  0  0  0  0  0  0  0  0
  -13.8753    0.9221  -32.7493 C   0  0  0  0  0  0  0  0  0  0  0  0
  -12.9438    1.3299  -31.7935 C   0  0  0  0  0  0  0  0  0  0  0  0
  -11.9023    2.1854  -32.1121 C   0  0  0  0  0  0  0  0  0  0  0  0
  -11.7480    2.6670  -33.3914 C   0  0  0  0  0  0  0  0  0  0  0  0
  -12.6684    2.2741  -34.3711 C   0  0  0  0  0  0  0  0  0  0  0  0
  -13.6931    1.4216  -34.0202 C   0  0  0  0  0  0  0  0  0  0  0  0
  -16.2644    0.7132  -32.1690 C   0  0  0  0  0  0  0  0  0  0  0  0
  -17.0448    1.1837  -33.2008 C   0  0  0  0  0  0  0  0  0  0  0  0
  -18.2478    1.8549  -32.9500 C   0  0  0  0  0  0  0  0  0  0  0  0
  -18.6791    2.0603  -31.6590 C   0  0  0  0  0  0  0  0  0  0  0  0
  -20.1981    2.9074  -31.3269 Cl  0  0  0  0  0  0  0  0  0  0  0  0
  -17.9123    1.5977  -30.6326 C   0  0  0  0  0  0  0  0  0  0  0  0
  -16.7171    0.9310  -30.8864 C   0  0  0  0  0  0  0  0  0  0  0  0
  -16.1977   -1.8569  -33.3388 C   0  0  0  0  0  0  0  0  0  0  0  0
  -15.8815   -3.2411  -33.7999 C   0  0  0  0  0  0  0  0  0  0  0  0
  -12.9218   -5.7233  -35.3897 C   0  0  0  0  0  0  0  0  0  0  0  0
  -14.3369   -2.5463  -33.7343 Cl  0  0  0  0  0  0  0  0  0  0  0  0
  -14.3360   -2.5499  -33.7353 Cl  0  0  0  0  0  0  0  0  0  0  0  0
  1  2  1  0
  2  3  2  0
  3  4  1  0
  4  5  2  0
  5  6  1  0
  6  7  1  0
  7  8  1  0
  8  9  1  0
  9 10  1  0
 10 11  1  0
 11 12  1  0
 12 13  1  0
 13 14  2  0
 14 15  1  0
 15 16  2  0
 16 17  1  0
 17 18  2  0
 12 19  1  0
 19 20  2  0
 20 21  1  0
 21 22  2  0
 22 23  1  0
 22 24  1  0
 24 25  2  0
 11 26  1  0
 26 27  1  0
  6 28  2  0
 28  2  1  0
 27  8  1  0
 18 13  1  0
 25 19  1  0
M  END
$$$$
