
     RDKit          3D

 35 39  0  0  0  0  0  0  0  0999 V2000
  -23.6972   44.9974  -21.8186 C   0  0  0  0  0  0  0  0  0  0  0  0
  -22.7852   44.3691  -20.8944 N   0  0  0  0  0  0  0  0  0  0  0  0
  -21.4302   44.7815  -20.7745 C   0  0  0  0  0  0  0  0  0  0  0  0
  -21.0272   45.1392  -19.6416 O   0  0  0  0  0  0  0  0  0  0  0  0
  -20.5695   44.7897  -21.8762 O   0  0  0  0  0  0  0  0  0  0  0  0
  -19.9014   43.6075  -22.2757 C   0  0  1  0  0  0  0  0  0  0  0  0
  -19.2604   43.8729  -23.6028 C   0  0  0  0  0  0  0  0  0  0  0  0
  -17.8640   43.9655  -23.5881 O   0  0  0  0  0  0  0  0  0  0  0  0
  -17.2098   44.4189  -22.4801 C   0  0  0  0  0  0  0  0  0  0  0  0
  -16.0960   45.2293  -22.6070 C   0  0  0  0  0  0  0  0  0  0  0  0
  -15.4449   45.6804  -21.4536 C   0  0  0  0  0  0  0  0  0  0  0  0
  -15.9382   45.3004  -20.2297 C   0  0  0  0  0  0  0  0  0  0  0  0
  -15.2910   45.7651  -19.0414 N   0  0  0  0  0  0  0  0  0  0  0  0
  -15.8564   45.4582  -17.7673 C   0  0  0  0  0  0  0  0  0  0  0  0
  -14.8941   45.5068  -16.6092 C   0  0  0  0  0  0  0  0  0  0  0  0
  -13.5416   45.7289  -17.0380 N   0  0  0  0  0  0  0  0  0  0  0  0
  -12.5254   45.5771  -16.0833 C   0  0  0  0  0  0  0  0  0  0  0  0
  -11.1145   45.4717  -16.5841 C   0  0  0  0  0  0  0  0  0  0  0  0
  -10.8455   44.5864  -15.5441 O   0  0  0  0  0  0  0  0  0  0  0  0
  -12.2061   44.2340  -15.5279 C   0  0  0  0  0  0  0  0  0  0  0  0
  -13.4084   46.8579  -17.8932 C   0  0  0  0  0  0  0  0  0  0  0  0
  -14.0939   46.5267  -19.1946 C   0  0  0  0  0  0  0  0  0  0  0  0
  -17.0733   44.4744  -20.1283 C   0  0  0  0  0  0  0  0  0  0  0  0
  -17.6983   44.0411  -21.2488 C   0  0  0  0  0  0  0  0  0  0  0  0
  -18.9050   43.1670  -21.2254 C   0  0  2  0  0  0  0  0  0  0  0  0
  -18.5755   41.7924  -21.4795 N   0  0  0  0  0  0  0  0  0  0  0  0
  -19.0104   40.6835  -20.7125 C   0  0  0  0  0  0  0  0  0  0  0  0
  -19.5568   40.9162  -19.5955 O   0  0  0  0  0  0  0  0  0  0  0  0
  -18.8607   39.3002  -21.1429 C   0  0  0  0  0  0  0  0  0  0  0  0
  -17.8504   38.9047  -21.9914 C   0  0  0  0  0  0  0  0  0  0  0  0
  -17.6676   37.6138  -22.4232 C   0  0  0  0  0  0  0  0  0  0  0  0
  -18.5374   36.6275  -21.9958 C   0  0  0  0  0  0  0  0  0  0  0  0
  -18.3603   35.3419  -22.4231 F   0  0  0  0  0  0  0  0  0  0  0  0
  -19.5603   36.9807  -21.1484 C   0  0  0  0  0  0  0  0  0  0  0  0
  -19.7205   38.2871  -20.7299 C   0  0  0  0  0  0  0  0  0  0  0  0
  1  2  1  0
  2  3  1  0
  3  4  2  0
  3  5  1  0
  6  5  1  1
  6  7  1  0
  7  8  1  0
  8  9  1  0
  9 10  2  0
 10 11  1  0
 11 12  2  0
 12 13  1  0
 13 14  1  0
 14 15  1  0
 15 16  1  0
 16 17  1  0
 17 18  1  0
 18 19  1  0
 19 20  1  0
 16 21  1  0
 21 22  1  0
 12 23  1  0
 23 24  2  0
 24 25  1  0
 25 26  1  6
 26 27  1  0
 27 28  2  0
 27 29  1  0
 29 30  2  0
 30 31  1  0
 31 32  2  0
 32 33  1  0
 32 34  1  0
 34 35  2  0
 25  6  1  0
 35 29  1  0
 24  9  1  0
 22 13  1  0
 20 17  1  0
M  END
$$$$
