
     RDKit          3D

 33 38  0  0  0  0  0  0  0  0999 V2000
  -24.1600   47.4437  -23.8064 C   0  0  0  0  0  0  0  0  0  0  0  0
  -23.2022   46.6284  -23.1092 N   0  0  0  0  0  0  0  0  0  0  0  0
  -21.8970   47.2222  -23.0597 C   0  0  0  0  0  0  0  0  0  0  0  0
  -21.1615   46.9471  -21.7864 C   0  0  0  0  0  0  0  0  0  0  0  0
  -21.3691   45.5800  -21.3750 N   0  0  0  0  0  0  0  0  0  0  0  0
  -20.2214   44.7895  -21.0795 C   0  0  0  0  0  0  0  0  0  0  0  0
  -20.3360   43.4957  -20.7450 N   0  0  0  0  0  0  0  0  0  0  0  0
  -19.2722   42.6856  -20.4575 C   0  0  0  0  0  0  0  0  0  0  0  0
  -19.4764   41.3062  -20.0824 C   0  0  0  0  0  0  0  0  0  0  0  0
  -19.2487   40.2530  -20.8406 C   0  0  0  0  0  0  0  0  0  0  0  0
  -18.7544   40.2310  -22.2073 C   0  0  0  0  0  0  0  0  0  0  0  0
  -17.7419   39.4084  -22.7178 C   0  0  0  0  0  0  0  0  0  0  0  0
  -17.6024   39.6785  -24.0251 N   0  0  0  0  0  0  0  0  0  0  0  0
  -18.4616   40.6313  -24.4173 C   0  0  0  0  0  0  0  0  0  0  0  0
  -18.7713   41.2807  -25.5859 C   0  0  0  0  0  0  0  0  0  0  0  0
  -19.7510   42.2420  -25.6736 C   0  0  0  0  0  0  0  0  0  0  0  0
  -20.4609   42.5821  -24.5582 C   0  0  0  0  0  0  0  0  0  0  0  0
  -20.1761   41.9500  -23.3667 C   0  0  0  0  0  0  0  0  0  0  0  0
  -19.1841   40.9776  -23.2776 C   0  0  0  0  0  0  0  0  0  0  0  0
  -19.6083   39.0519  -20.0666 C   0  0  0  0  0  0  0  0  0  0  0  0
  -19.5506   37.8481  -20.4058 O   0  0  0  0  0  0  0  0  0  0  0  0
  -20.0782   39.4514  -18.7575 N   0  0  0  0  0  0  0  0  0  0  0  0
  -19.9890   40.8749  -18.7825 C   0  0  0  0  0  0  0  0  0  0  0  0
  -20.3004   41.6653  -17.8374 O   0  0  0  0  0  0  0  0  0  0  0  0
  -17.9949   43.2021  -20.5044 C   0  0  0  0  0  0  0  0  0  0  0  0
  -16.8807   42.4333  -20.2004 C   0  0  0  0  0  0  0  0  0  0  0  0
  -15.6442   43.0340  -20.2568 C   0  0  0  0  0  0  0  0  0  0  0  0
  -15.4775   44.3616  -20.6010 C   0  0  0  0  0  0  0  0  0  0  0  0
  -16.6187   45.0808  -20.8907 C   0  0  0  0  0  0  0  0  0  0  0  0
  -17.8869   44.5365  -20.8511 C   0  0  0  0  0  0  0  0  0  0  0  0
  -18.9794   45.2940  -21.1280 N   0  0  0  0  0  0  0  0  0  0  0  0
  -22.7240   45.0931  -21.3062 C   0  0  0  0  0  0  0  0  0  0  0  0
  -23.6548   46.1478  -21.8246 C   0  0  0  0  0  0  0  0  0  0  0  0
  1  2  1  0
  2  3  1  0
  3  4  1  0
  4  5  1  0
  5  6  1  0
  6  7  2  0
  7  8  1  0
  8  9  1  0
  9 10  2  0
 10 11  1  0
 11 12  2  0
 12 13  1  0
 13 14  1  0
 14 15  2  0
 15 16  1  0
 16 17  2  0
 17 18  1  0
 18 19  2  0
 10 20  1  0
 20 21  2  0
 20 22  1  0
 22 23  1  0
 23 24  2  0
  8 25  2  0
 25 26  1  0
 26 27  2  0
 27 28  1  0
 28 29  2  0
 29 30  1  0
 30 31  2  0
  5 32  1  0
 32 33  1  0
 33  2  1  0
 31  6  1  0
 23  9  1  0
 30 25  1  0
 19 11  1  0
 19 14  1  0
M  END
$$$$
