
     RDKit          3D

 36 40  0  0  0  0  0  0  0  0999 V2000
  -19.0911   35.5625  -20.8518 O   0  0  0  0  0  0  0  0  0  0  0  0
  -18.3609   36.1158  -21.6997 C   0  0  0  0  0  0  0  0  0  0  0  0
  -17.5094   35.3498  -22.4673 O   0  0  0  0  0  0  0  0  0  0  0  0
  -18.4200   37.5528  -21.8634 C   0  0  0  0  0  0  0  0  0  0  0  0
  -19.3199   38.2807  -21.0995 C   0  0  0  0  0  0  0  0  0  0  0  0
  -19.3541   39.6453  -21.2766 C   0  0  0  0  0  0  0  0  0  0  0  0
  -18.5408   40.3250  -22.1731 C   0  0  0  0  0  0  0  0  0  0  0  0
  -18.6105   41.7525  -22.2805 N   0  0  0  0  0  0  0  0  0  0  0  0
  -19.4972   42.3622  -23.2662 C   0  0  0  0  0  0  0  0  0  0  0  0
  -20.2339   41.7487  -24.0569 O   0  0  0  0  0  0  0  0  0  0  0  0
  -19.3653   43.7947  -23.1568 C   0  0  0  0  0  0  0  0  0  0  0  0
  -19.9693   44.7389  -23.8500 C   0  0  0  0  0  0  0  0  0  0  0  0
  -20.3902   44.4905  -25.2155 C   0  0  0  0  0  0  0  0  0  0  0  0
  -20.0809   43.2738  -25.8149 C   0  0  0  0  0  0  0  0  0  0  0  0
  -20.6048   43.3369  -27.0818 C   0  0  0  0  0  0  0  0  0  0  0  0
  -21.1967   44.5657  -27.1907 C   0  0  0  0  0  0  0  0  0  0  0  0
  -21.8806   45.0264  -28.4126 C   0  0  0  0  0  0  0  0  0  0  0  0
  -21.9941   46.3650  -28.6750 C   0  0  0  0  0  0  0  0  0  0  0  0
  -22.6377   46.8029  -29.8248 C   0  0  0  0  0  0  0  0  0  0  0  0
  -23.1706   45.9038  -30.7174 C   0  0  0  0  0  0  0  0  0  0  0  0
  -23.8395   46.3342  -31.9114 N   0  0  0  0  0  4  0  0  0  0  0  0
  -23.3155   47.1748  -32.6584 O   0  0  0  0  0  0  0  0  0  0  0  0
  -25.0519   45.8096  -32.2115 O   0  0  0  0  0  1  0  0  0  0  0  0
  -23.0542   44.5572  -30.4497 C   0  0  0  0  0  0  0  0  0  0  0  0
  -22.4132   44.1233  -29.3044 C   0  0  0  0  0  0  0  0  0  0  0  0
  -21.0414   45.1969  -26.0731 O   0  0  0  0  0  0  0  0  0  0  0  0
  -18.3803   43.9849  -22.0825 C   0  0  0  0  0  0  0  0  0  0  0  0
  -17.9688   42.7961  -21.6031 C   0  0  0  0  0  0  0  0  0  0  0  0
  -16.9824   42.6543  -20.5246 C   0  0  0  0  0  0  0  0  0  0  0  0
  -15.7976   43.3240  -20.4968 C   0  0  0  0  0  0  0  0  0  0  0  0
  -14.8765   43.1695  -19.4492 C   0  0  0  0  0  0  0  0  0  0  0  0
  -15.1570   42.3229  -18.4104 C   0  0  0  0  0  0  0  0  0  0  0  0
  -16.3407   41.6525  -18.4362 C   0  0  0  0  0  0  0  0  0  0  0  0
  -17.2492   41.8016  -19.4645 C   0  0  0  0  0  0  0  0  0  0  0  0
  -17.6494   39.5843  -22.9266 C   0  0  0  0  0  0  0  0  0  0  0  0
  -17.5952   38.2215  -22.7693 C   0  0  0  0  0  0  0  0  0  0  0  0
  1  2  2  0
  2  3  1  0
  2  4  1  0
  4  5  2  0
  5  6  1  0
  6  7  2  0
  7  8  1  0
  8  9  1  0
  9 10  2  0
  9 11  1  0
 11 12  2  0
 12 13  1  0
 13 14  2  0
 14 15  1  0
 15 16  2  0
 16 17  1  0
 17 18  2  0
 18 19  1  0
 19 20  2  0
 20 21  1  0
 21 22  2  0
 21 23  1  0
 20 24  1  0
 24 25  2  0
 16 26  1  0
 11 27  1  0
 27 28  2  0
 28 29  1  0
 29 30  2  0
 30 31  1  0
 31 32  2  0
 32 33  1  0
 33 34  2  0
  7 35  1  0
 35 36  2  0
 36  4  1  0
 28  8  1  0
 34 29  1  0
 26 13  1  0
 25 17  1  0
M  CHG  2  21   1  23  -1
M  END
$$$$
