
     RDKit          3D

 26 28  0  0  0  0  0  0  0  0999 V2000
  -14.0508   48.7581  -21.9305 C   0  0  0  0  0  0  0  0  0  0  0  0
  -14.1177   47.3798  -21.5117 N   0  0  0  0  0  0  0  0  0  0  0  0
  -14.8481   46.5346  -22.3910 C   0  0  0  0  0  0  0  0  0  0  0  0
  -15.9227   45.7133  -21.7626 C   0  0  0  0  0  0  0  0  0  0  0  0
  -15.3533   45.0576  -20.5560 C   0  0  0  0  0  0  0  0  0  0  0  0
  -14.5870   45.8548  -19.7305 C   0  0  0  0  0  0  0  0  0  0  0  0
  -14.1189   45.1102  -18.6409 C   0  0  0  0  0  0  0  0  0  0  0  0
  -13.3362   45.4077  -17.5522 C   0  0  0  0  0  0  0  0  0  0  0  0
  -13.0375   44.4363  -16.6210 C   0  0  0  0  0  0  0  0  0  0  0  0
  -13.5467   43.1707  -16.8198 C   0  0  0  0  0  0  0  0  0  0  0  0
  -14.3232   42.8902  -17.9068 C   0  0  0  0  0  0  0  0  0  0  0  0
  -14.6420   43.8479  -18.8630 C   0  0  0  0  0  0  0  0  0  0  0  0
  -15.3663   43.8429  -19.9990 N   0  0  0  0  0  0  0  0  0  0  0  0
  -16.0642   42.6977  -20.5516 C   0  0  0  0  0  0  0  0  0  0  0  0
  -17.4495   42.6138  -20.0398 C   0  0  0  0  0  0  0  0  0  0  0  0
  -17.8080   41.9298  -18.9027 C   0  0  0  0  0  0  0  0  0  0  0  0
  -19.1446   41.9023  -18.4900 C   0  0  0  0  0  0  0  0  0  0  0  0
  -20.1360   42.5442  -19.1887 C   0  0  0  0  0  0  0  0  0  0  0  0
  -21.5272   42.5551  -18.8193 C   0  0  0  0  0  0  0  0  0  0  0  0
  -22.4057   43.1640  -19.4994 O   0  0  0  0  0  0  0  0  0  0  0  0
  -21.9923   41.8813  -17.6679 N   0  0  0  0  0  0  0  0  0  0  0  0
  -23.3113   41.8851  -17.3077 O   0  0  0  0  0  0  0  0  0  0  0  0
  -19.7692   43.2324  -20.3346 C   0  0  0  0  0  0  0  0  0  0  0  0
  -18.4445   43.2532  -20.7338 C   0  0  0  0  0  0  0  0  0  0  0  0
  -14.4125   47.2679  -20.1278 C   0  0  0  0  0  0  0  0  0  0  0  0
  -17.0456   44.0492  -19.4590 Cl  0  0  0  0  0  0  0  0  0  0  0  0
  1  2  1  0
  2  3  1  0
  3  4  1  0
  4  5  1  0
  5  6  2  0
  6  7  1  0
  7  8  2  0
  8  9  1  0
  9 10  2  0
 10 11  1  0
 11 12  2  0
 12 13  1  0
 13 14  1  0
 14 15  1  0
 15 16  2  0
 16 17  1  0
 17 18  2  0
 18 19  1  0
 19 20  2  0
 19 21  1  0
 21 22  1  0
 18 23  1  0
 23 24  2  0
  6 25  1  0
 25  2  1  0
 13  5  1  0
 24 15  1  0
 12  7  1  0
M  END
$$$$
