
     RDKit          3D

 25 28  0  0  0  0  0  0  0  0999 V2000
  -24.1272   37.5837  -23.6797 C   0  0  0  0  0  0  0  0  0  0  0  0
  -23.2202   38.2112  -22.6957 C   0  0  0  0  0  0  0  0  0  0  0  0
  -23.2973   37.9302  -21.4766 O   0  0  0  0  0  0  0  0  0  0  0  0
  -22.2420   39.1365  -23.0551 O   0  0  0  0  0  0  0  0  0  0  0  0
  -21.0975   39.3435  -22.3789 N   0  0  0  0  0  0  0  0  0  0  0  0
  -19.9671   39.6181  -22.7756 C   0  0  0  0  0  0  0  0  0  0  0  0
  -18.7263   38.8937  -22.6973 C   0  0  0  0  0  0  0  0  0  0  0  0
  -18.4358   37.7198  -22.1761 C   0  0  0  0  0  0  0  0  0  0  0  0
  -17.2222   37.3821  -21.4114 C   0  0  0  0  0  0  0  0  0  0  0  0
  -16.2877   38.1641  -21.1450 O   0  0  0  0  0  0  0  0  0  0  0  0
  -17.3670   36.0188  -21.0685 N   0  0  0  0  0  0  0  0  0  0  0  0
  -18.5930   35.5208  -21.5814 C   0  0  0  0  0  0  0  0  0  0  0  0
  -19.1301   34.2559  -21.4823 C   0  0  0  0  0  0  0  0  0  0  0  0
  -20.3454   33.9474  -22.0480 C   0  0  0  0  0  0  0  0  0  0  0  0
  -21.0795   32.1982  -21.9063 Br  0  0  0  0  0  0  0  0  0  0  0  0
  -21.0237   34.9381  -22.7235 C   0  0  0  0  0  0  0  0  0  0  0  0
  -20.4979   36.2181  -22.8334 C   0  0  0  0  0  0  0  0  0  0  0  0
  -19.2900   36.5282  -22.2722 C   0  0  0  0  0  0  0  0  0  0  0  0
  -17.7015   39.6995  -23.3357 N   0  0  0  0  0  0  0  0  0  0  0  0
  -18.3135   40.8982  -23.7957 C   0  0  0  0  0  0  0  0  0  0  0  0
  -17.7536   41.9673  -24.4594 C   0  0  0  0  0  0  0  0  0  0  0  0
  -18.5615   43.0239  -24.8033 C   0  0  0  0  0  0  0  0  0  0  0  0
  -19.8876   43.0014  -24.4880 C   0  0  0  0  0  0  0  0  0  0  0  0
  -20.4626   41.9338  -23.8216 C   0  0  0  0  0  0  0  0  0  0  0  0
  -19.6583   40.8793  -23.4779 C   0  0  0  0  0  0  0  0  0  0  0  0
  1  2  1  0
  2  3  2  0
  2  4  1  0
  4  5  1  0
  5  6  2  0
  6  7  1  0
  7  8  2  0
  8  9  1  0
  9 10  2  0
  9 11  1  0
 11 12  1  0
 12 13  2  0
 13 14  1  0
 14 15  1  0
 14 16  2  0
 16 17  1  0
 17 18  2  0
  7 19  1  0
 19 20  1  0
 20 21  2  0
 21 22  1  0
 22 23  2  0
 23 24  1  0
 24 25  2  0
 25  6  1  0
 18  8  1  0
 25 20  1  0
 18 12  1  0
M  END
$$$$
