
     RDKit          3D

 29 33  0  0  0  0  0  0  0  0999 V2000
  -18.7079   32.6844  -21.2147 N   0  0  0  0  0  0  0  0  0  0  0  0
  -19.7403   33.5383  -21.6952 C   0  0  0  0  0  0  0  0  0  0  0  0
  -20.8231   33.0442  -22.0777 O   0  0  0  0  0  0  0  0  0  0  0  0
  -19.5657   34.9756  -21.7520 C   0  0  0  0  0  0  0  0  0  0  0  0
  -20.4808   35.7624  -22.4077 C   0  0  0  0  0  0  0  0  0  0  0  0
  -20.2915   37.1133  -22.4461 C   0  0  0  0  0  0  0  0  0  0  0  0
  -19.1944   37.6772  -21.8329 C   0  0  0  0  0  0  0  0  0  0  0  0
  -19.0030   39.1418  -21.8822 C   0  0  0  0  0  0  0  0  0  0  0  0
  -17.9411   39.8048  -21.4067 N   0  0  0  0  0  0  0  0  0  0  0  0
  -18.0959   41.1185  -21.6186 C   0  0  0  0  0  0  0  0  0  0  0  0
  -17.1644   42.1890  -21.2479 C   0  0  0  0  0  0  0  0  0  0  0  0
  -15.8330   42.1449  -21.5691 C   0  0  0  0  0  0  0  0  0  0  0  0
  -14.9956   43.1747  -21.1957 C   0  0  0  0  0  0  0  0  0  0  0  0
  -15.4539   44.2771  -20.4934 C   0  0  0  0  0  0  0  0  0  0  0  0
  -16.7935   44.3384  -20.1610 C   0  0  0  0  0  0  0  0  0  0  0  0
  -17.6144   43.2988  -20.5435 C   0  0  0  0  0  0  0  0  0  0  0  0
  -16.9827   45.5325  -19.4687 O   0  0  0  0  0  0  0  0  0  0  0  0
  -15.8696   46.4045  -19.6908 C   0  0  0  0  0  0  0  0  0  0  0  0
  -14.8496   45.4408  -19.9952 O   0  0  0  0  0  0  0  0  0  0  0  0
  -19.3082   41.2548  -22.2519 C   0  0  0  0  0  0  0  0  0  0  0  0
  -19.8632   42.5523  -22.6687 C   0  0  0  0  0  0  0  0  0  0  0  0
  -19.0469   43.5376  -23.1822 C   0  0  0  0  0  0  0  0  0  0  0  0
  -19.6095   44.7528  -23.5669 C   0  0  0  0  0  0  0  0  0  0  0  0
  -20.9625   44.9746  -23.4387 C   0  0  0  0  0  0  0  0  0  0  0  0
  -21.7494   43.9492  -22.9142 C   0  0  0  0  0  0  0  0  0  0  0  0
  -21.1836   42.7905  -22.5522 N   0  0  0  0  0  0  0  0  0  0  0  0
  -19.8534   40.0386  -22.4075 N   0  0  0  0  0  0  0  0  0  0  0  0
  -18.2641   36.9059  -21.1697 C   0  0  0  0  0  0  0  0  0  0  0  0
  -18.4532   35.5444  -21.1301 C   0  0  0  0  0  0  0  0  0  0  0  0
  1  2  1  0
  2  3  2  0
  2  4  1  0
  4  5  2  0
  5  6  1  0
  6  7  2  0
  7  8  1  0
  8  9  2  0
  9 10  1  0
 10 11  1  0
 11 12  2  0
 12 13  1  0
 13 14  2  0
 14 15  1  0
 15 16  2  0
 15 17  1  0
 17 18  1  0
 18 19  1  0
 10 20  2  0
 20 21  1  0
 21 22  2  0
 22 23  1  0
 23 24  2  0
 24 25  1  0
 25 26  2  0
 20 27  1  0
  7 28  1  0
 28 29  2  0
 29  4  1  0
 27  8  1  0
 16 11  1  0
 26 21  1  0
 19 14  1  0
M  END
$$$$
