
     RDKit          3D

 24 27  0  0  0  0  0  0  0  0999 V2000
  -20.4579   43.7320  -17.4330 O   0  0  0  0  0  0  0  0  0  0  0  0
  -19.7995   43.0478  -18.2712 C   0  0  0  0  0  0  0  0  0  0  0  0
  -20.3556   42.1017  -19.0420 N   0  0  0  0  0  0  0  0  0  0  0  0
  -19.6512   41.3822  -19.9266 C   0  0  0  0  0  0  0  0  0  0  0  0
  -20.2786   40.4198  -20.6944 O   0  0  0  0  0  0  0  0  0  0  0  0
  -19.5071   39.4121  -21.2490 C   0  0  0  0  0  0  0  0  0  0  0  0
  -18.8614   39.5141  -22.4709 C   0  0  0  0  0  0  0  0  0  0  0  0
  -18.2152   38.3281  -22.6613 N   0  0  0  0  0  0  0  0  0  0  0  0
  -18.4401   37.5374  -21.6303 N   0  0  0  0  0  0  0  0  0  0  0  0
  -17.8998   36.1979  -21.5107 C   0  0  0  0  0  0  0  0  0  0  0  0
  -18.5981   35.2202  -22.3538 C   0  0  0  0  0  0  0  0  0  0  0  0
  -19.9875   35.1538  -22.3191 C   0  0  0  0  0  0  0  0  0  0  0  0
  -20.6595   34.2416  -23.1043 C   0  0  0  0  0  0  0  0  0  0  0  0
  -19.9576   33.3756  -23.9415 C   0  0  0  0  0  0  0  0  0  0  0  0
  -18.5796   33.4335  -23.9830 C   0  0  0  0  0  0  0  0  0  0  0  0
  -17.9347   34.3613  -23.1819 C   0  0  0  0  0  0  0  0  0  0  0  0
  -19.2276   38.1605  -20.7393 C   0  0  0  0  0  0  0  0  0  0  0  0
  -18.3350   41.6254  -20.0389 N   0  0  0  0  0  0  0  0  0  0  0  0
  -17.7468   42.5611  -19.2867 C   0  0  0  0  0  0  0  0  0  0  0  0
  -16.3872   42.8402  -19.3757 C   0  0  0  0  0  0  0  0  0  0  0  0
  -15.7837   43.7787  -18.6247 N   0  0  0  0  0  0  0  0  0  0  0  0
  -16.4849   44.5006  -17.7386 C   0  0  0  0  0  0  0  0  0  0  0  0
  -17.8392   44.2908  -17.5838 C   0  0  0  0  0  0  0  0  0  0  0  0
  -18.4526   43.3160  -18.3673 C   0  0  0  0  0  0  0  0  0  0  0  0
  1  2  2  0
  2  3  1  0
  3  4  2  0
  4  5  1  0
  5  6  1  0
  6  7  1  0
  7  8  2  0
  8  9  1  0
  9 10  1  0
 10 11  1  0
 11 12  2  0
 12 13  1  0
 13 14  2  0
 14 15  1  0
 15 16  2  0
  9 17  1  0
  4 18  1  0
 18 19  1  0
 19 20  2  0
 20 21  1  0
 21 22  2  0
 22 23  1  0
 23 24  2  0
 24  2  1  0
 17  6  2  0
 24 19  1  0
 16 11  1  0
M  END
$$$$
