
     RDKit          3D

 26 28  0  0  0  0  0  0  0  0999 V2000
  -15.3169   18.5918  -32.6441 C   0  0  0  0  0  0  0  0  0  0  0  0
  -16.6224   18.1826  -32.9381 O   0  0  0  0  0  0  0  0  0  0  0  0
  -17.1149   16.9123  -32.6847 C   0  0  0  0  0  0  0  0  0  0  0  0
  -16.8006   16.2407  -31.5197 C   0  0  0  0  0  0  0  0  0  0  0  0
  -17.2780   14.9749  -31.2433 C   0  0  0  0  0  0  0  0  0  0  0  0
  -16.9399   14.2583  -29.9971 C   0  0  0  0  0  0  0  0  0  0  0  0
  -15.6491   13.9044  -29.7034 C   0  0  0  0  0  0  0  0  0  0  0  0
  -15.3525   13.2344  -28.5380 C   0  0  0  0  0  0  0  0  0  0  0  0
  -13.9714   12.8539  -28.2197 C   0  0  0  0  0  0  0  0  0  0  0  0
  -13.2502   12.0294  -29.0568 C   0  0  0  0  0  0  0  0  0  0  0  0
  -11.9554   11.6510  -28.7923 C   0  0  0  0  0  0  0  0  0  0  0  0
  -11.3677   12.1244  -27.6374 C   0  0  0  0  0  0  0  0  0  0  0  0
  -12.0610   12.9524  -26.7757 C   0  0  0  0  0  0  0  0  0  0  0  0
  -11.4338   13.4082  -25.6222 O   0  0  0  0  0  0  0  0  0  0  0  0
  -13.3537   13.3067  -27.0775 C   0  0  0  0  0  0  0  0  0  0  0  0
  -16.4107   12.9464  -27.7005 C   0  0  0  0  0  0  0  0  0  0  0  0
  -17.6729   13.2856  -27.9748 N   0  0  0  0  0  0  0  0  0  0  0  0
  -17.9570   13.9313  -29.0984 C   0  0  0  0  0  0  0  0  0  0  0  0
  -19.2965   14.3131  -29.4268 N   0  0  0  0  0  0  0  0  0  0  0  0
  -18.0951   14.3923  -32.1877 C   0  0  0  0  0  0  0  0  0  0  0  0
  -18.4199   15.0639  -33.3714 C   0  0  0  0  0  0  0  0  0  0  0  0
  -19.2429   14.4842  -34.3281 O   0  0  0  0  0  0  0  0  0  0  0  0
  -19.8044   13.2244  -34.0186 C   0  0  0  0  0  0  0  0  0  0  0  0
  -17.9324   16.3298  -33.6299 C   0  0  0  0  0  0  0  0  0  0  0  0
  -18.2861   16.9410  -34.8113 O   0  0  0  0  0  0  0  0  0  0  0  0
  -19.2685   17.9312  -34.9473 C   0  0  0  0  0  0  0  0  0  0  0  0
  1  2  1  0
  2  3  1  0
  3  4  2  0
  4  5  1  0
  5  6  1  0
  6  7  2  0
  7  8  1  0
  8  9  1  0
  9 10  2  0
 10 11  1  0
 11 12  2  0
 12 13  1  0
 13 14  1  0
 13 15  2  0
  8 16  2  0
 16 17  1  0
 17 18  2  0
 18 19  1  0
  5 20  2  0
 20 21  1  0
 21 22  1  0
 22 23  1  0
 21 24  2  0
 24 25  1  0
 25 26  1  0
 24  3  1  0
 18  6  1  0
 15  9  1  0
M  END
$$$$
