
     RDKit          3D

 31 35  0  0  0  0  0  0  0  0999 V2000
  -17.2429   35.9096  -20.9603 O   0  0  0  0  0  0  0  0  0  0  0  0
  -18.2968   35.7679  -21.6338 C   0  0  0  0  0  0  0  0  0  0  0  0
  -18.4586   36.5643  -22.7876 N   0  0  0  0  0  0  0  0  0  0  0  0
  -18.2271   37.9839  -22.8494 C   0  0  0  0  0  0  0  0  0  0  0  0
  -19.5202   38.7023  -22.9670 C   0  0  0  0  0  0  0  0  0  0  0  0
  -19.4246   40.1285  -22.9301 N   0  0  0  0  0  0  0  0  0  0  0  0
  -18.1560   40.6358  -23.2887 C   0  0  0  0  0  0  0  0  0  0  0  0
  -17.5897   41.6525  -22.3581 C   0  0  0  0  0  0  0  0  0  0  0  0
  -18.5720   42.7605  -22.0576 C   0  0  0  0  0  0  0  0  0  0  0  0
  -18.0631   43.6277  -21.0200 N   0  0  0  0  0  0  0  0  0  0  0  0
  -17.2320   43.3312  -20.0064 C   0  0  0  0  0  0  0  0  0  0  0  0
  -16.7227   42.2084  -19.7592 O   0  0  0  0  0  0  0  0  0  0  0  0
  -16.9911   44.4171  -19.2469 N   0  0  0  0  0  0  0  0  0  0  0  0
  -17.6750   45.4504  -19.7672 C   0  0  0  0  0  0  0  0  0  0  0  0
  -17.8030   46.7956  -19.4070 C   0  0  0  0  0  0  0  0  0  0  0  0
  -18.5925   47.6173  -20.1553 C   0  0  0  0  0  0  0  0  0  0  0  0
  -19.2542   47.0992  -21.2622 C   0  0  0  0  0  0  0  0  0  0  0  0
  -19.1363   45.7672  -21.6310 C   0  0  0  0  0  0  0  0  0  0  0  0
  -18.3309   44.9545  -20.8573 C   0  0  0  0  0  0  0  0  0  0  0  0
  -19.9471   42.2433  -21.7933 C   0  0  0  0  0  0  0  0  0  0  0  0
  -20.0915   40.7600  -21.8476 C   0  0  0  0  0  0  0  0  0  0  0  0
  -19.3255   34.7935  -21.2178 C   0  0  0  0  0  0  0  0  0  0  0  0
  -19.0589   33.5206  -20.7693 C   0  0  0  0  0  0  0  0  0  0  0  0
  -20.2678   32.9053  -20.4738 C   0  0  0  0  0  0  0  0  0  0  0  0
  -20.6513   31.6671  -19.9998 C   0  0  0  0  0  0  0  0  0  0  0  0
  -21.9616   31.3179  -19.7954 C   0  0  0  0  0  0  0  0  0  0  0  0
  -22.3300   30.0922  -19.3268 F   0  0  0  0  0  0  0  0  0  0  0  0
  -22.9518   32.2419  -20.0741 C   0  0  0  0  0  0  0  0  0  0  0  0
  -22.5819   33.4781  -20.5466 C   0  0  0  0  0  0  0  0  0  0  0  0
  -21.2600   33.8088  -20.7449 C   0  0  0  0  0  0  0  0  0  0  0  0
  -20.6559   34.9258  -21.1877 N   0  0  0  0  0  0  0  0  0  0  0  0
  1  2  2  0
  2  3  1  0
  3  4  1  0
  4  5  1  0
  5  6  1  0
  6  7  1  0
  7  8  1  0
  8  9  1  0
  9 10  1  0
 10 11  1  0
 11 12  2  0
 11 13  1  0
 13 14  1  0
 14 15  2  0
 15 16  1  0
 16 17  2  0
 17 18  1  0
 18 19  2  0
  9 20  1  0
 20 21  1  0
  2 22  1  0
 22 23  2  0
 23 24  1  0
 24 25  2  0
 25 26  1  0
 26 27  1  0
 26 28  2  0
 28 29  1  0
 29 30  2  0
 30 31  1  0
 21  6  1  0
 31 22  1  0
 19 10  1  0
 30 24  1  0
 19 14  1  0
M  END
$$$$
