
     RDKit          3D

 21 24  0  0  0  0  0  0  0  0999 V2000
  -17.8598   39.5068  -22.3990 C   0  0  0  0  0  0  0  0  0  0  0  0
  -19.0614   40.3984  -22.5009 C   0  0  2  0  0  0  0  0  0  0  0  0
  -18.7608   41.6215  -23.2799 C   0  0  0  0  0  0  0  0  0  0  0  0
  -17.7647   42.4555  -22.5118 C   0  0  0  0  0  0  0  0  0  0  0  0
  -18.2963   42.7659  -21.1450 C   0  0  2  0  0  0  0  0  0  0  0  0
  -17.4856   43.7313  -20.4006 C   0  0  0  0  0  0  0  0  0  0  0  0
  -16.4381   44.4549  -20.9135 C   0  0  0  0  0  0  0  0  0  0  0  0
  -15.7359   45.3446  -20.1190 C   0  0  0  0  0  0  0  0  0  0  0  0
  -16.0469   45.5478  -18.7910 C   0  0  0  0  0  0  0  0  0  0  0  0
  -15.3096   46.4525  -18.0400 O   0  0  0  0  0  0  0  0  0  0  0  0
  -17.1000   44.8228  -18.2687 C   0  0  0  0  0  0  0  0  0  0  0  0
  -17.7969   43.9368  -19.0655 C   0  0  0  0  0  0  0  0  0  0  0  0
  -18.9417   43.1349  -18.5353 C   0  0  0  0  0  0  0  0  0  0  0  0
  -18.8213   41.6871  -18.9327 C   0  0  0  0  0  0  0  0  0  0  0  0
  -18.5463   41.4755  -20.3837 C   0  0  1  0  0  0  0  0  0  0  0  0
  -19.6212   40.7578  -21.1166 C   0  0  2  0  0  0  0  0  0  0  0  0
  -20.0062   39.4323  -20.5930 C   0  0  0  0  0  0  0  0  0  0  0  0
  -20.5004   38.6853  -21.8215 C   0  0  1  0  0  0  0  0  0  0  0  0
  -21.8839   38.5465  -21.7115 O   0  0  0  0  0  0  0  0  0  0  0  0
  -20.2119   39.5817  -23.0124 C   0  0  2  0  0  0  0  0  0  0  0  0
  -19.8878   38.8471  -24.1438 O   0  0  0  0  0  0  0  0  0  0  0  0
  2  1  1  1
  2  3  1  0
  3  4  1  0
  5  4  1  6
  5  6  1  0
  6  7  2  0
  7  8  1  0
  8  9  2  0
  9 10  1  0
  9 11  1  0
 11 12  2  0
 12 13  1  0
 13 14  1  0
 15 14  1  1
 15 16  1  0
 16 17  1  1
 17 18  1  0
 18 19  1  1
 18 20  1  0
 20 21  1  6
 16  2  1  0
 20  2  1  0
 15  5  1  0
 12  6  1  0
M  END
$$$$
