
     RDKit          3D

 30 34  0  0  0  0  0  0  0  0999 V2000
  -15.7127   43.4284  -19.9606 C   0  0  0  0  0  0  0  0  0  0  0  0
  -16.3376   44.3350  -20.8151 O   0  0  0  0  0  0  0  0  0  0  0  0
  -17.3392   43.8780  -21.6722 C   0  0  0  0  0  0  0  0  0  0  0  0
  -17.6454   42.5159  -21.7035 C   0  0  0  0  0  0  0  0  0  0  0  0
  -18.6261   42.0952  -22.5466 C   0  0  0  0  0  0  0  0  0  0  0  0
  -19.0477   40.7061  -22.6741 C   0  0  2  0  0  0  0  0  0  0  0  0
  -19.6063   40.1056  -21.4175 C   0  0  0  0  0  0  0  0  0  0  0  0
  -19.4976   40.6847  -20.1959 C   0  0  0  0  0  0  0  0  0  0  0  0
  -20.1018   40.0645  -19.0980 C   0  0  0  0  0  0  0  0  0  0  0  0
  -20.7946   38.8809  -19.2724 C   0  0  0  0  0  0  0  0  0  0  0  0
  -20.8820   38.3120  -20.5595 C   0  0  0  0  0  0  0  0  0  0  0  0
  -20.2963   38.9143  -21.6149 C   0  0  0  0  0  0  0  0  0  0  0  0
  -20.2730   38.3577  -22.9897 C   0  0  2  0  0  0  0  0  0  0  0  0
  -20.8730   37.0953  -23.0389 O   0  0  0  0  0  0  0  0  0  0  0  0
  -18.8375   38.3025  -23.2553 C   0  0  1  0  0  0  0  0  0  0  0  0
  -18.2286   37.7472  -24.4614 C   0  0  0  0  0  0  0  0  0  0  0  0
  -16.8946   38.3321  -24.3436 O   0  0  0  0  0  0  0  0  0  0  0  0
  -16.9505   39.3676  -23.3468 C   0  0  0  0  0  0  0  0  0  0  0  0
  -15.9357   39.6493  -22.6956 O   0  0  0  0  0  0  0  0  0  0  0  0
  -18.3347   39.7623  -23.4654 C   0  0  2  0  0  0  0  0  0  0  0  0
  -21.2754   38.5105  -18.0329 O   0  0  0  0  0  0  0  0  0  0  0  0
  -20.7000   39.3169  -17.0259 C   0  0  0  0  0  0  0  0  0  0  0  0
  -20.1597   40.4132  -17.7560 O   0  0  0  0  0  0  0  0  0  0  0  0
  -19.2970   43.0118  -23.3520 C   0  0  0  0  0  0  0  0  0  0  0  0
  -19.0215   44.3582  -23.3472 C   0  0  0  0  0  0  0  0  0  0  0  0
  -19.6759   45.2905  -24.1399 O   0  0  0  0  0  0  0  0  0  0  0  0
  -19.8311   45.1887  -25.5190 C   0  0  0  0  0  0  0  0  0  0  0  0
  -18.0263   44.7614  -22.4860 C   0  0  0  0  0  0  0  0  0  0  0  0
  -17.7171   46.1145  -22.4502 O   0  0  0  0  0  0  0  0  0  0  0  0
  -17.1609   46.7138  -21.2730 C   0  0  0  0  0  0  0  0  0  0  0  0
  1  2  1  0
  2  3  1  0
  3  4  2  0
  4  5  1  0
  6  5  1  1
  6  7  1  0
  7  8  2  0
  8  9  1  0
  9 10  2  0
 10 11  1  0
 11 12  2  0
 12 13  1  0
 13 14  1  1
 13 15  1  0
 15 16  1  6
 16 17  1  0
 17 18  1  0
 18 19  2  0
 20 18  1  1
 10 21  1  0
 21 22  1  0
 22 23  1  0
  5 24  2  0
 24 25  1  0
 25 26  1  0
 26 27  1  0
 25 28  2  0
 28 29  1  0
 29 30  1  0
 28  3  1  0
 20  6  1  0
 12  7  1  0
 20 15  1  0
 23  9  1  0
M  END
$$$$
