
     RDKit          3D

 17 18  0  0  0  0  0  0  0  0999 V2000
  -21.2116   42.3501  -18.8044 C   0  0  0  0  0  0  0  0  0  0  0  0
  -20.0295   41.6303  -18.5449 O   0  0  0  0  0  0  0  0  0  0  0  0
  -19.2913   41.0911  -19.5992 C   0  0  0  0  0  0  0  0  0  0  0  0
  -18.2342   41.7845  -20.1524 C   0  0  0  0  0  0  0  0  0  0  0  0
  -17.4965   41.2507  -21.2028 C   0  0  0  0  0  0  0  0  0  0  0  0
  -17.7948   40.0051  -21.7321 C   0  0  0  0  0  0  0  0  0  0  0  0
  -17.2647   39.2675  -22.7179 N   0  0  0  0  0  0  0  0  0  0  0  0
  -17.9647   38.1274  -22.7961 C   0  0  0  0  0  0  0  0  0  0  0  0
  -18.9609   38.1264  -21.8489 C   0  0  0  0  0  0  0  0  0  0  0  0
  -19.9877   37.0900  -21.5484 C   0  0  0  0  0  0  0  0  0  0  0  0
  -20.8960   37.0062  -22.7333 C   0  0  0  0  0  0  0  0  0  0  0  0
  -22.1519   37.6787  -22.5531 N   0  0  0  0  0  0  0  0  0  0  0  0
  -22.3116   38.9480  -23.1773 C   0  0  0  0  0  0  0  0  0  0  0  0
  -23.3885   39.9002  -22.7850 C   0  0  0  0  0  0  0  0  0  0  0  0
  -21.5384   39.3372  -24.1081 O   0  0  0  0  0  0  0  0  0  0  0  0
  -18.8529   39.3200  -21.1725 C   0  0  0  0  0  0  0  0  0  0  0  0
  -19.5829   39.8524  -20.1304 C   0  0  0  0  0  0  0  0  0  0  0  0
  1  2  1  0
  2  3  1  0
  3  4  2  0
  4  5  1  0
  5  6  2  0
  6  7  1  0
  7  8  1  0
  8  9  2  0
  9 10  1  0
 10 11  1  0
 11 12  1  0
 12 13  1  0
 13 14  1  0
 13 15  2  0
  9 16  1  0
 16 17  2  0
 17  3  1  0
 16  6  1  0
M  END
$$$$
