
     RDKit          3D

 26 28  0  0  0  0  0  0  0  0999 V2000
  -22.4942   37.1190  -23.4878 C   0  0  0  0  0  0  0  0  0  0  0  0
  -21.8694   36.0142  -22.8040 N   0  0  0  0  0  0  0  0  0  0  0  0
  -20.6304   36.1629  -22.1569 C   0  0  0  0  0  0  0  0  0  0  0  0
  -19.9763   37.3386  -22.0757 N   0  0  0  0  0  0  0  0  0  0  0  0
  -18.8036   37.4912  -21.4533 C   0  0  0  0  0  0  0  0  0  0  0  0
  -18.1151   38.7513  -21.3874 N   0  0  0  0  0  0  0  0  0  0  0  0
  -18.6542   39.9207  -21.9836 C   0  0  0  0  0  0  0  0  0  0  0  0
  -19.6441   39.8802  -22.9302 C   0  0  0  0  0  0  0  0  0  0  0  0
  -20.1614   41.0118  -23.5166 C   0  0  0  0  0  0  0  0  0  0  0  0
  -19.6672   42.2768  -23.1420 C   0  0  0  0  0  0  0  0  0  0  0  0
  -20.2510   43.4443  -23.7643 C   0  0  0  0  0  0  0  0  0  0  0  0
  -19.7544   43.8203  -24.9109 O   0  0  0  0  0  0  0  0  0  0  0  0
  -21.2877   44.2306  -23.2911 N   0  0  0  0  0  0  0  0  0  0  0  0
  -21.4419   45.6045  -23.7735 C   0  0  0  0  0  0  0  0  0  0  0  0
  -22.9030   45.9660  -23.9381 C   0  0  0  0  0  0  0  0  0  0  0  0
  -23.6580   45.6019  -22.8398 O   0  0  0  0  0  0  0  0  0  0  0  0
  -22.9053   45.0844  -21.7888 C   0  0  0  0  0  0  0  0  0  0  0  0
  -22.2554   43.7912  -22.3379 C   0  0  0  0  0  0  0  0  0  0  0  0
  -18.6809   42.2974  -22.1976 C   0  0  0  0  0  0  0  0  0  0  0  0
  -18.1429   41.1684  -21.5925 C   0  0  0  0  0  0  0  0  0  0  0  0
  -17.1531   41.1764  -20.6426 O   0  0  0  0  0  0  0  0  0  0  0  0
  -17.3759   41.8507  -19.4255 C   0  0  0  0  0  0  0  0  0  0  0  0
  -18.2517   36.3875  -20.8727 N   0  0  0  0  0  0  0  0  0  0  0  0
  -18.8679   35.1828  -20.9268 C   0  0  0  0  0  0  0  0  0  0  0  0
  -20.0684   35.0378  -21.5664 C   0  0  0  0  0  0  0  0  0  0  0  0
  -20.8973   33.4782  -21.6568 Cl  0  0  0  0  0  0  0  0  0  0  0  0
  1  2  1  0
  2  3  1  0
  3  4  2  0
  4  5  1  0
  5  6  1  0
  6  7  1  0
  7  8  2  0
  8  9  1  0
  9 10  2  0
 10 11  1  0
 11 12  2  0
 11 13  1  0
 13 14  1  0
 14 15  1  0
 15 16  1  0
 16 17  1  0
 17 18  1  0
 10 19  1  0
 19 20  2  0
 20 21  1  0
 21 22  1  0
  5 23  2  0
 23 24  1  0
 24 25  2  0
 25 26  1  0
 25  3  1  0
 20  7  1  0
 18 13  1  0
M  END
$$$$
