
     RDKit          3D

 20 22  0  0  0  0  0  0  0  0999 V2000
  -27.1409   16.5657  -23.6229 O   0  0  0  0  0  0  0  0  0  0  0  0
  -27.2875   16.7443  -22.3651 C   0  0  0  0  0  0  0  0  0  0  0  0
  -26.5280   17.7915  -21.8110 N   0  0  0  0  0  0  0  0  0  0  0  0
  -25.7405   18.5782  -22.5781 O   0  0  0  0  0  0  0  0  0  0  0  0
  -28.1841   15.9012  -21.6093 C   0  0  0  0  0  0  0  0  0  0  0  0
  -29.2795   15.3159  -22.1912 C   0  0  0  0  0  0  0  0  0  0  0  0
  -30.0932   14.5366  -21.4568 N   0  0  0  0  0  0  0  0  0  0  0  0
  -29.8763   14.2981  -20.1417 C   0  0  0  0  0  0  0  0  0  0  0  0
  -30.8006   13.4595  -19.4490 N   0  0  0  0  0  0  0  0  0  0  0  0
  -31.4379   12.3159  -20.0626 C   0  0  0  0  0  0  0  0  0  0  0  0
  -32.3874   11.5860  -19.1555 C   0  0  0  0  0  0  0  0  0  0  0  0
  -33.1263   10.4983  -19.5531 C   0  0  0  0  0  0  0  0  0  0  0  0
  -33.9921    9.8445  -18.6924 C   0  0  0  0  0  0  0  0  0  0  0  0
  -34.1434   10.2689  -17.3914 C   0  0  0  0  0  0  0  0  0  0  0  0
  -33.4080   11.3600  -16.9777 C   0  0  0  0  0  0  0  0  0  0  0  0
  -32.5421   12.0069  -17.8532 C   0  0  0  0  0  0  0  0  0  0  0  0
  -30.7373   11.4772  -21.0746 C   0  0  0  0  0  0  0  0  0  0  0  0
  -31.8356   12.4140  -21.5053 C   0  0  0  0  0  0  0  0  0  0  0  0
  -28.8231   14.8561  -19.5658 N   0  0  0  0  0  0  0  0  0  0  0  0
  -27.9975   15.6358  -20.2735 C   0  0  0  0  0  0  0  0  0  0  0  0
  1  2  2  0
  2  3  1  0
  3  4  1  0
  2  5  1  0
  5  6  2  0
  6  7  1  0
  7  8  2  0
  8  9  1  0
  9 10  1  0
 10 11  1  0
 11 12  2  0
 12 13  1  0
 13 14  2  0
 14 15  1  0
 15 16  2  0
 10 17  1  0
 17 18  1  0
  8 19  1  0
 19 20  2  0
 20  5  1  0
 18 10  1  0
 16 11  1  0
M  END
$$$$
