
     RDKit          3D

 18 19  0  0  0  0  0  0  0  0999 V2000
  -20.4455   42.5578  -20.6891 N   0  0  0  0  0  0  0  0  0  0  0  0
  -20.2021   41.7840  -19.5512 C   0  0  0  0  0  0  0  0  0  0  0  0
  -20.4252   42.1098  -18.2442 N   0  0  0  0  0  0  0  0  0  0  0  0
  -20.0653   41.1172  -17.5275 O   0  0  0  0  0  0  0  0  0  0  0  0
  -19.6178   40.1440  -18.2140 N   0  0  0  0  0  0  0  0  0  0  0  0
  -19.6755   40.4989  -19.5119 C   0  0  0  0  0  0  0  0  0  0  0  0
  -19.2642   39.6788  -20.6310 C   0  0  0  0  0  0  0  0  0  0  0  0
  -18.4800   38.6851  -20.4387 N   0  0  0  0  0  0  0  0  0  0  0  0
  -18.5402   37.5917  -21.3686 C   0  0  0  0  0  0  0  0  0  0  0  0
  -19.1342   36.3987  -21.0137 C   0  0  0  0  0  0  0  0  0  0  0  0
  -19.1913   35.3461  -21.8934 C   0  0  0  0  0  0  0  0  0  0  0  0
  -18.6555   35.4490  -23.1620 C   0  0  0  0  0  0  0  0  0  0  0  0
  -18.7101   34.4136  -24.0312 F   0  0  0  0  0  0  0  0  0  0  0  0
  -18.0584   36.6493  -23.5180 C   0  0  0  0  0  0  0  0  0  0  0  0
  -17.3631   36.8171  -25.1309 Cl  0  0  0  0  0  0  0  0  0  0  0  0
  -18.0042   37.6996  -22.6330 C   0  0  0  0  0  0  0  0  0  0  0  0
  -19.7381   39.9947  -21.9424 N   0  0  0  0  0  0  0  0  0  0  0  0
  -20.0053   41.2987  -22.2176 O   0  0  0  0  0  0  0  0  0  0  0  0
  1  2  1  0
  2  3  2  0
  3  4  1  0
  4  5  1  0
  5  6  2  0
  6  7  1  0
  7  8  2  0
  8  9  1  0
  9 10  2  0
 10 11  1  0
 11 12  2  0
 12 13  1  0
 12 14  1  0
 14 15  1  0
 14 16  2  0
  7 17  1  0
 17 18  1  0
  6  2  1  0
 16  9  1  0
M  END
$$$$
