
     RDKit          3D

 32 34  0  0  0  0  0  0  0  0999 V2000
   -2.0729   18.8014  -23.6276 C   0  0  0  0  0  0  0  0  0  0  0  0
   -0.6119   18.4082  -23.7665 C   0  0  0  0  0  0  0  0  0  0  0  0
   -0.1292   17.7722  -22.4853 C   0  0  0  0  0  0  0  0  0  0  0  0
    1.3322   17.3826  -22.6388 C   0  0  0  0  0  0  0  0  0  0  0  0
    1.8678   16.7632  -21.4178 C   0  0  0  0  0  0  0  0  0  0  0  0
    1.2040   15.7949  -20.9637 O   0  0  0  0  0  0  0  0  0  0  0  0
    3.0245   17.1689  -20.7415 N   0  0  0  0  0  0  0  0  0  0  0  0
    3.8139   18.2396  -21.3734 C   0  0  0  0  0  0  0  0  0  0  0  0
    3.5818   19.5658  -20.8319 C   0  0  0  0  0  0  0  0  0  0  0  0
    4.6512   20.4206  -20.6780 C   0  0  0  0  0  0  0  0  0  0  0  0
    4.4961   21.7125  -20.1669 C   0  0  0  0  0  0  0  0  0  0  0  0
    3.2608   22.1840  -19.7947 C   0  0  0  0  0  0  0  0  0  0  0  0
    3.0870   23.5368  -19.2643 C   0  0  0  0  0  0  0  0  0  0  0  0
    2.3071   24.4770  -19.9417 C   0  0  0  0  0  0  0  0  0  0  0  0
    2.1322   25.7324  -19.4340 C   0  0  0  0  0  0  0  0  0  0  0  0
    2.7412   26.0515  -18.2397 C   0  0  0  0  0  0  0  0  0  0  0  0
    3.5080   25.1425  -17.5645 C   0  0  0  0  0  0  0  0  0  0  0  0
    3.6944   23.8557  -18.0741 C   0  0  0  0  0  0  0  0  0  0  0  0
    4.5237   22.9087  -17.3493 C   0  0  0  0  0  0  0  0  0  0  0  0
    5.8422   22.8939  -17.1482 N   0  0  0  0  0  0  0  0  0  0  0  0
    6.1716   21.8469  -16.4287 N   0  0  0  0  0  0  0  0  0  0  0  0
    5.0890   21.1546  -16.1420 N   0  0  0  0  0  0  0  0  0  0  0  0
    4.0738   21.8071  -16.7079 N   0  0  0  0  0  0  0  0  0  0  0  0
    2.1993   21.3220  -19.9522 C   0  0  0  0  0  0  0  0  0  0  0  0
    2.3490   20.0242  -20.4647 C   0  0  0  0  0  0  0  0  0  0  0  0
    3.4950   16.6854  -19.4753 C   0  0  2  0  0  0  0  0  0  0  0  0
    4.5352   15.6476  -19.5591 C   0  0  0  0  0  0  0  0  0  0  0  0
    5.1310   15.2123  -18.5526 O   0  0  0  0  0  0  0  0  0  0  0  0
    4.8693   15.1321  -20.7941 O   0  0  0  0  0  0  0  0  0  0  0  0
    2.4517   16.2108  -18.5122 C   0  0  0  0  0  0  0  0  0  0  0  0
    1.1302   16.8683  -18.5286 C   0  0  0  0  0  0  0  0  0  0  0  0
    2.9757   16.1387  -17.0885 C   0  0  0  0  0  0  0  0  0  0  0  0
  1  2  1  0
  2  3  1  0
  3  4  1  0
  4  5  1  0
  5  6  2  0
  5  7  1  0
  7  8  1  0
  8  9  1  0
  9 10  2  0
 10 11  1  0
 11 12  2  0
 12 13  1  0
 13 14  2  0
 14 15  1  0
 15 16  2  0
 16 17  1  0
 17 18  2  0
 18 19  1  0
 19 20  1  0
 20 21  2  0
 21 22  1  0
 22 23  1  0
 12 24  1  0
 24 25  2  0
  7 26  1  0
 26 27  1  0
 27 28  2  0
 27 29  1  0
 26 30  1  6
 30 31  1  0
 30 32  1  0
 25  9  1  0
 18 13  1  0
 23 19  2  0
M  END
$$$$
