
     RDKit          3D

 25 29  0  0  0  0  0  0  0  0999 V2000
    6.0275   13.6275  -39.5480 N   0  0  0  0  0  0  0  0  0  0  0  0
    6.0756   14.2283  -38.2760 C   0  0  0  0  0  0  0  0  0  0  0  0
    6.3176   15.4942  -37.9548 N   0  0  0  0  0  0  0  0  0  0  0  0
    6.2767   15.6776  -36.6436 N   0  0  0  0  0  0  0  0  0  0  0  0
    5.9996   14.4995  -36.0755 C   0  0  0  0  0  0  0  0  0  0  0  0
    5.8492   14.1431  -34.7951 N   0  0  0  0  0  0  0  0  0  0  0  0
    5.5745   12.9002  -34.4959 N   0  0  0  0  0  0  0  0  0  0  0  0
    5.4252   11.9125  -35.4039 C   0  0  0  0  0  0  0  0  0  0  0  0
    5.1185   10.5423  -35.0110 C   0  0  0  0  0  0  0  0  0  0  0  0
    4.2898    9.6697  -35.6809 C   0  0  0  0  0  0  0  0  0  0  0  0
    3.5617    9.9495  -36.9146 C   0  0  0  0  0  0  0  0  0  0  0  0
    3.7219    9.0942  -37.9825 C   0  0  0  0  0  0  0  0  0  0  0  0
    3.0660    9.3022  -39.1681 C   0  0  0  0  0  0  0  0  0  0  0  0
    2.2312   10.3802  -39.3052 C   0  0  0  0  0  0  0  0  0  0  0  0
    2.0479   11.2581  -38.2536 C   0  0  0  0  0  0  0  0  0  0  0  0
    2.7180   11.0346  -37.0607 C   0  0  0  0  0  0  0  0  0  0  0  0
    4.2709    8.5141  -34.9972 N   0  0  0  0  0  0  0  0  0  0  0  0
    5.0426    8.5805  -33.9138 N   0  0  0  0  0  0  0  0  0  0  0  0
    5.3324    7.6903  -32.9429 C   0  0  0  0  0  0  0  0  0  0  0  0
    6.1792    8.0228  -31.9131 C   0  0  0  0  0  0  0  0  0  0  0  0
    6.7239    9.2929  -31.9014 C   0  0  0  0  0  0  0  0  0  0  0  0
    6.4303   10.2031  -32.8902 C   0  0  0  0  0  0  0  0  0  0  0  0
    5.5647    9.8255  -33.9196 C   0  0  0  0  0  0  0  0  0  0  0  0
    5.5819   12.2852  -36.7303 C   0  0  0  0  0  0  0  0  0  0  0  0
    5.8675   13.5723  -37.0621 C   0  0  0  0  0  0  0  0  0  0  0  0
  1  2  1  0
  2  3  2  0
  3  4  1  0
  4  5  1  0
  5  6  2  0
  6  7  1  0
  7  8  2  0
  8  9  1  0
  9 10  1  0
 10 11  1  0
 11 12  2  0
 12 13  1  0
 13 14  2  0
 14 15  1  0
 15 16  2  0
 10 17  2  0
 17 18  1  0
 18 19  1  0
 19 20  2  0
 20 21  1  0
 21 22  2  0
 22 23  1  0
  8 24  1  0
 24 25  2  0
 25  2  1  0
 25  5  1  0
 23  9  2  0
 16 11  1  0
 23 18  1  0
M  END
$$$$
