
     RDKit          3D

 26 27  0  0  0  0  0  0  0  0999 V2000
  -19.0428   17.9952  -36.3726 O   0  0  0  0  0  0  0  0  0  0  0  0
  -18.3521   18.6906  -37.1475 C   0  0  0  0  0  0  0  0  0  0  0  0
  -16.8857   18.7688  -36.9615 C   0  0  0  0  0  0  0  0  0  0  0  0
  -16.5897   19.8143  -35.9210 C   0  0  0  0  0  0  0  0  0  0  0  0
  -16.7297   19.2014  -34.6158 N   0  0  0  0  0  0  0  0  0  0  0  0
  -15.8854   18.1679  -34.1290 C   0  0  0  0  0  0  0  0  0  0  0  0
  -14.9806   17.7092  -34.8560 O   0  0  0  0  0  0  0  0  0  0  0  0
  -16.0496   17.6196  -32.7813 C   0  0  0  0  0  0  0  0  0  0  0  0
  -15.6689   18.3880  -31.7161 C   0  0  0  0  0  0  0  0  0  0  0  0
  -15.8105   17.9000  -30.4282 C   0  0  0  0  0  0  0  0  0  0  0  0
  -16.3389   16.6366  -30.2637 C   0  0  0  0  0  0  0  0  0  0  0  0
  -16.7271   15.8502  -31.3255 C   0  0  0  0  0  0  0  0  0  0  0  0
  -16.5820   16.3452  -32.6045 C   0  0  0  0  0  0  0  0  0  0  0  0
  -17.0360   15.4474  -34.0283 Cl  0  0  0  0  0  0  0  0  0  0  0  0
  -19.0046   19.3888  -38.1905 N   0  0  0  0  0  0  0  0  0  0  0  0
  -20.4000   19.1774  -38.3565 C   0  0  0  0  0  0  0  0  0  0  0  0
  -21.1632   19.9692  -39.2064 C   0  0  0  0  0  0  0  0  0  0  0  0
  -22.5177   19.7632  -39.3669 C   0  0  0  0  0  0  0  0  0  0  0  0
  -23.1717   18.7578  -38.6865 C   0  0  0  0  0  0  0  0  0  0  0  0
  -24.8742   18.4867  -38.8781 Cl  0  0  0  0  0  0  0  0  0  0  0  0
  -22.4386   17.9570  -37.8365 C   0  0  0  0  0  0  0  0  0  0  0  0
  -23.1391   16.8624  -37.0928 C   0  0  0  0  0  0  0  0  0  0  0  0
  -23.5486   15.9074  -38.0258 F   0  0  0  0  0  0  0  0  0  0  0  0
  -24.2835   17.3196  -36.4766 F   0  0  0  0  0  0  0  0  0  0  0  0
  -22.2882   16.2806  -36.1876 F   0  0  0  0  0  0  0  0  0  0  0  0
  -21.0851   18.1776  -37.6884 C   0  0  0  0  0  0  0  0  0  0  0  0
  1  2  2  0
  2  3  1  0
  3  4  1  0
  4  5  1  0
  5  6  1  0
  6  7  2  0
  6  8  1  0
  8  9  2  0
  9 10  1  0
 10 11  2  0
 11 12  1  0
 12 13  2  0
 13 14  1  0
  2 15  1  0
 15 16  1  0
 16 17  2  0
 17 18  1  0
 18 19  2  0
 19 20  1  0
 19 21  1  0
 21 22  1  0
 22 23  1  0
 22 24  1  0
 22 25  1  0
 21 26  2  0
 13  8  1  0
 26 16  1  0
M  END
$$$$
