
     RDKit          3D

 40 44  0  0  0  0  0  0  0  0999 V2000
  -10.1471   18.9259  -38.8720 C   0  0  0  0  0  0  0  0  0  0  0  0
  -10.7308   17.7338  -39.5954 C   0  0  0  0  0  0  0  0  0  0  0  0
  -11.7234   18.2163  -40.5254 N   0  0  0  0  0  0  0  0  0  0  0  0
  -12.1647   17.1952  -41.4430 C   0  0  0  0  0  0  0  0  0  0  0  0
  -13.1836   16.2714  -40.8666 C   0  0  0  0  0  0  0  0  0  0  0  0
  -14.2113   16.9964  -40.2119 N   0  0  0  0  0  0  0  0  0  0  0  0
  -15.4104   16.2906  -39.9426 C   0  0  0  0  0  0  0  0  0  0  0  0
  -16.2355   17.0194  -38.9529 C   0  0  0  0  0  0  0  0  0  0  0  0
  -16.4567   18.3486  -39.1408 C   0  0  0  0  0  0  0  0  0  0  0  0
  -17.2332   19.0781  -38.2322 C   0  0  0  0  0  0  0  0  0  0  0  0
  -17.7951   18.4833  -37.1273 C   0  0  0  0  0  0  0  0  0  0  0  0
  -18.5929   19.2770  -36.2098 C   0  0  0  0  0  0  0  0  0  0  0  0
  -18.0412   20.2061  -35.5529 O   0  0  0  0  0  0  0  0  0  0  0  0
  -19.9674   19.0925  -35.9852 N   0  0  0  0  0  0  0  0  0  0  0  0
  -20.6882   19.6265  -34.8581 C   0  0  0  0  0  0  0  0  0  0  0  0
  -21.5726   20.6709  -35.0297 C   0  0  0  0  0  0  0  0  0  0  0  0
  -22.2824   21.2153  -33.9881 C   0  0  0  0  0  0  0  0  0  0  0  0
  -22.1159   20.7034  -32.6905 C   0  0  0  0  0  0  0  0  0  0  0  0
  -22.8984   21.2910  -31.5864 C   0  0  0  0  0  0  0  0  0  0  0  0
  -21.2422   19.6680  -32.5026 C   0  0  0  0  0  0  0  0  0  0  0  0
  -21.0120   19.0996  -31.2664 O   0  0  0  0  0  0  0  0  0  0  0  0
  -19.7369   18.8206  -30.8289 C   0  0  0  0  0  0  0  0  0  0  0  0
  -18.7628   19.7557  -30.5708 C   0  0  0  0  0  0  0  0  0  0  0  0
  -17.5078   19.4185  -30.1385 C   0  0  0  0  0  0  0  0  0  0  0  0
  -17.1528   18.0967  -29.9363 C   0  0  0  0  0  0  0  0  0  0  0  0
  -18.1054   17.1533  -30.1861 C   0  0  0  0  0  0  0  0  0  0  0  0
  -19.3589   17.4787  -30.6174 C   0  0  0  0  0  0  0  0  0  0  0  0
  -17.5152   15.8179  -29.9058 C   0  0  0  0  0  0  0  0  0  0  0  0
  -16.1334   16.0922  -29.4716 C   0  0  0  0  0  0  0  0  0  0  0  0
  -15.3006   15.2090  -29.1412 O   0  0  0  0  0  0  0  0  0  0  0  0
  -15.9395   17.4852  -29.4994 N   0  0  0  0  0  0  0  0  0  0  0  0
  -20.5254   19.1280  -33.5958 C   0  0  0  0  0  0  0  0  0  0  0  0
  -17.5624   17.1394  -36.9513 C   0  0  0  0  0  0  0  0  0  0  0  0
  -16.7918   16.4041  -37.8482 C   0  0  0  0  0  0  0  0  0  0  0  0
  -16.5577   14.9576  -37.6254 C   0  0  0  0  0  0  0  0  0  0  0  0
  -15.2316   14.6091  -37.6770 F   0  0  0  0  0  0  0  0  0  0  0  0
  -17.1393   14.5654  -36.4223 F   0  0  0  0  0  0  0  0  0  0  0  0
  -17.2296   14.2571  -38.6076 F   0  0  0  0  0  0  0  0  0  0  0  0
  -13.7955   17.9413  -39.2404 C   0  0  0  0  0  0  0  0  0  0  0  0
  -12.8178   18.8996  -39.8820 C   0  0  0  0  0  0  0  0  0  0  0  0
  1  2  1  0
  2  3  1  0
  3  4  1  0
  4  5  1  0
  5  6  1  0
  6  7  1  0
  7  8  1  0
  8  9  2  0
  9 10  1  0
 10 11  2  0
 11 12  1  0
 12 13  2  0
 12 14  1  0
 14 15  1  0
 15 16  2  0
 16 17  1  0
 17 18  2  0
 18 19  1  0
 18 20  1  0
 20 21  1  0
 21 22  1  0
 22 23  2  0
 23 24  1  0
 24 25  2  0
 25 26  1  0
 26 27  2  0
 26 28  1  0
 28 29  1  0
 29 30  2  0
 29 31  1  0
 20 32  2  0
 11 33  1  0
 33 34  2  0
 34 35  1  0
 35 36  1  0
 35 37  1  0
 35 38  1  0
  6 39  1  0
 39 40  1  0
 40  3  1  0
 34  8  1  0
 32 15  1  0
 27 22  1  0
 31 25  1  0
M  END
$$$$
