
     RDKit          3D

 41 44  0  0  0  0  0  0  0  0999 V2000
   -3.2025   41.3428   -9.7098 C   0  0  0  0  0  0  0  0  0  0  0  0
   -4.5113   41.7761  -10.2874 C   0  0  0  0  0  0  0  0  0  0  0  0
   -5.4626   40.8026  -10.5929 N   0  0  0  0  0  0  0  0  0  0  0  0
   -5.4270   40.5343  -12.0069 C   0  0  0  0  0  0  0  0  0  0  0  0
   -5.4543   41.7662  -12.8724 C   0  0  0  0  0  0  0  0  0  0  0  0
   -4.0981   39.8418  -12.2890 C   0  0  0  0  0  0  0  0  0  0  0  0
   -6.5055   39.5790  -12.4465 C   0  0  0  0  0  0  0  0  0  0  0  0
   -7.8663   40.0827  -11.9962 C   0  0  0  0  0  0  0  0  0  0  0  0
   -8.4276   40.9396  -12.8903 O   0  0  0  0  0  0  0  0  0  0  0  0
   -9.2817   41.1133  -13.8654 C   0  0  0  0  0  0  0  0  0  0  0  0
  -10.3834   41.9374  -13.8569 C   0  0  0  0  0  0  0  0  0  0  0  0
  -11.2331   42.0524  -14.9416 C   0  0  0  0  0  0  0  0  0  0  0  0
  -10.9899   41.3136  -16.1097 C   0  0  0  0  0  0  0  0  0  0  0  0
  -11.8745   41.4351  -17.2303 C   0  0  0  0  0  0  0  0  0  0  0  0
  -12.2144   40.4269  -17.8853 O   0  0  0  0  0  0  0  0  0  0  0  0
  -12.4130   42.7049  -17.6572 N   0  0  0  0  0  0  0  0  0  0  0  0
  -13.4282   42.7735  -18.6542 C   0  0  0  0  0  0  0  0  0  0  0  0
  -13.1535   43.3971  -19.8723 C   0  0  0  0  0  0  0  0  0  0  0  0
  -14.1269   43.4978  -20.8387 C   0  0  0  0  0  0  0  0  0  0  0  0
  -15.4187   42.9964  -20.6657 C   0  0  0  0  0  0  0  0  0  0  0  0
  -16.3667   43.1481  -21.7082 N   0  0  0  0  0  0  0  0  0  0  0  0
  -17.0919   42.0654  -22.2507 C   0  0  0  0  0  0  0  0  0  0  0  0
  -17.2683   41.0000  -21.6075 O   0  0  0  0  0  0  0  0  0  0  0  0
  -17.6670   42.1226  -23.5609 N   0  0  0  0  0  0  0  0  0  0  0  0
  -18.8934   41.5409  -23.9318 C   0  0  0  0  0  0  0  0  0  0  0  0
  -19.1392   40.8966  -25.1458 C   0  0  0  0  0  0  0  0  0  0  0  0
  -20.4638   40.4610  -25.1211 C   0  0  0  0  0  0  0  0  0  0  0  0
  -21.1232   39.7274  -26.2232 C   0  0  0  0  0  0  0  0  0  0  0  0
  -22.6028   39.5243  -25.9343 C   0  0  0  0  0  0  0  0  0  0  0  0
  -20.9653   40.5080  -27.5068 C   0  0  0  0  0  0  0  0  0  0  0  0
  -20.4819   38.3722  -26.3611 C   0  0  0  0  0  0  0  0  0  0  0  0
  -20.9516   40.8334  -23.9603 O   0  0  0  0  0  0  0  0  0  0  0  0
  -20.0513   41.4567  -23.2699 N   0  0  0  0  0  0  0  0  0  0  0  0
  -15.6858   42.3809  -19.4607 C   0  0  0  0  0  0  0  0  0  0  0  0
  -14.7055   42.2770  -18.4848 C   0  0  0  0  0  0  0  0  0  0  0  0
   -9.9174   40.5293  -16.0800 N   0  0  0  0  0  0  0  0  0  0  0  0
   -9.0726   40.3823  -15.0704 C   0  0  0  0  0  0  0  0  0  0  0  0
   -7.9302   40.3944  -10.5543 C   0  0  0  0  0  0  0  0  0  0  0  0
   -6.6055   40.5310   -9.8796 C   0  0  0  0  0  0  0  0  0  0  0  0
   -6.3561   39.1369   -9.2009 C   0  0  0  0  0  0  0  0  0  0  0  0
   -6.8990   41.4051   -8.6571 C   0  0  0  0  0  0  0  0  0  0  0  0
  1  2  1  0
  2  3  1  0
  3  4  1  0
  4  5  1  0
  4  6  1  0
  4  7  1  0
  7  8  1  0
  8  9  1  0
  9 10  1  0
 10 11  2  0
 11 12  1  0
 12 13  2  0
 13 14  1  0
 14 15  2  0
 14 16  1  0
 16 17  1  0
 17 18  2  0
 18 19  1  0
 19 20  2  0
 20 21  1  0
 21 22  1  0
 22 23  2  0
 22 24  1  0
 24 25  1  0
 25 26  1  0
 26 27  2  0
 27 28  1  0
 28 29  1  0
 28 30  1  0
 28 31  1  0
 27 32  1  0
 32 33  1  0
 20 34  1  0
 34 35  2  0
 13 36  1  0
 36 37  2  0
  8 38  1  0
 38 39  1  0
 39 40  1  0
 39 41  1  0
 39  3  1  0
 37 10  1  0
 35 17  1  0
 33 25  2  0
M  END
$$$$
