
     RDKit          3D

 37 39  0  0  0  0  0  0  0  0999 V2000
  -20.1950   36.6546  -20.9737 O   0  0  0  0  0  0  0  0  0  0  0  0
  -19.0533   36.9762  -21.3535 C   0  0  0  0  0  0  0  0  0  0  0  0
  -18.1844   35.9484  -21.9215 C   0  0  0  0  0  0  0  0  0  0  0  0
  -18.2692   34.6945  -21.5253 C   0  0  0  0  0  0  0  0  0  0  0  0
  -19.4612   33.9413  -21.3006 C   0  0  0  0  0  0  0  0  0  0  0  0
  -20.6462   34.5772  -21.0285 C   0  0  0  0  0  0  0  0  0  0  0  0
  -21.8311   33.8719  -20.8041 C   0  0  0  0  0  0  0  0  0  0  0  0
  -21.7842   32.5014  -20.8626 C   0  0  0  0  0  0  0  0  0  0  0  0
  -22.9417   31.7776  -20.6446 O   0  0  0  0  0  0  0  0  0  0  0  0
  -20.6186   31.8268  -21.1320 C   0  0  0  0  0  0  0  0  0  0  0  0
  -20.6399   30.4458  -21.1767 O   0  0  0  0  0  0  0  0  0  0  0  0
  -19.4497   32.5724  -21.3516 C   0  0  0  0  0  0  0  0  0  0  0  0
  -18.6815   38.2917  -21.2116 O   0  0  0  0  0  0  0  0  0  0  0  0
  -19.5931   39.3688  -21.0314 C   0  0  0  0  0  0  0  0  0  0  0  0
  -18.8546   40.6785  -20.9417 C   0  0  0  0  0  0  0  0  0  0  0  0
  -18.3134   41.1602  -22.2437 C   0  0  0  0  0  0  0  0  0  0  0  0
  -18.3538   42.5507  -22.2537 O   0  0  0  0  0  0  0  0  0  0  0  0
  -16.8931   40.7517  -22.3533 C   0  0  0  0  0  0  0  0  0  0  0  0
  -16.1746   41.3281  -23.2079 O   0  0  0  0  0  0  0  0  0  0  0  0
  -16.3443   39.7579  -21.5424 O   0  0  0  0  0  0  0  0  0  0  0  0
  -19.0869   40.6934  -23.4475 C   0  0  0  0  0  0  0  0  0  0  0  0
  -20.5156   40.3380  -23.1387 C   0  0  0  0  0  0  0  0  0  0  0  0
  -21.3367   41.4819  -22.9626 O   0  0  0  0  0  0  0  0  0  0  0  0
  -22.5778   41.6576  -23.5257 C   0  0  0  0  0  0  0  0  0  0  0  0
  -23.5221   41.1081  -22.9474 O   0  0  0  0  0  0  0  0  0  0  0  0
  -22.7646   42.4627  -24.7576 C   0  0  0  0  0  0  0  0  0  0  0  0
  -23.6517   42.1037  -25.6672 C   0  0  0  0  0  0  0  0  0  0  0  0
  -23.8836   42.7881  -26.9247 C   0  0  0  0  0  0  0  0  0  0  0  0
  -23.9842   44.1590  -26.9858 C   0  0  0  0  0  0  0  0  0  0  0  0
  -24.2054   44.8323  -28.1679 C   0  0  0  0  0  0  0  0  0  0  0  0
  -24.3334   44.1238  -29.3435 C   0  0  0  0  0  0  0  0  0  0  0  0
  -24.5537   44.8292  -30.5052 O   0  0  0  0  0  0  0  0  0  0  0  0
  -24.2379   42.7674  -29.3099 C   0  0  0  0  0  0  0  0  0  0  0  0
  -24.3710   42.0757  -30.5107 O   0  0  0  0  0  0  0  0  0  0  0  0
  -24.0127   42.0921  -28.1018 C   0  0  0  0  0  0  0  0  0  0  0  0
  -20.6797   39.3362  -22.0461 C   0  0  0  0  0  0  0  0  0  0  0  0
  -21.8932   39.6618  -21.3927 O   0  0  0  0  0  0  0  0  0  0  0  0
  1  2  2  0
  2  3  1  0
  3  4  2  0
  4  5  1  0
  5  6  2  0
  6  7  1  0
  7  8  2  0
  8  9  1  0
  8 10  1  0
 10 11  1  0
 10 12  2  0
  2 13  1  0
 13 14  1  0
 14 15  1  0
 15 16  1  0
 16 17  1  0
 16 18  1  0
 18 19  2  0
 18 20  1  0
 16 21  1  0
 21 22  1  0
 22 23  1  0
 23 24  1  0
 24 25  2  0
 24 26  1  0
 26 27  2  0
 27 28  1  0
 28 29  2  0
 29 30  1  0
 30 31  2  0
 31 32  1  0
 31 33  1  0
 33 34  1  0
 33 35  2  0
 22 36  1  0
 36 37  1  0
 12  5  1  0
 36 14  1  0
 35 28  1  0
M  END
$$$$
