
     RDKit          3D

 58 55  0  0  0  0  0  0  0  0999 V2000
  -16.9599   16.0911  -33.5537 C   0  0  0  0  0  0  0  0  0  0  0  0
  -17.8754   15.4701  -32.4982 C   0  0  0  0  0  0  0  0  0  0  0  0
  -18.1573   14.2861  -32.6437 N   0  0  0  0  0  0  0  0  0  0  0  0
  -18.8666   13.3098  -32.0623 N   0  0  0  0  0  0  0  0  0  0  0  0
  -18.3276   12.0562  -31.5992 C   0  0  0  0  0  0  0  0  0  0  0  0
  -17.0454   11.9305  -31.6443 N   0  0  0  0  0  0  0  0  0  0  0  0
  -19.1305   10.9940  -31.1190 N   0  0  0  0  0  0  0  0  0  0  0  0
  -18.3027   16.3413  -31.4226 C   0  0  0  0  0  0  0  0  0  0  0  0
  -19.0776   15.8938  -30.3729 C   0  0  0  0  0  0  0  0  0  0  0  0
  -19.5156   16.7281  -29.3512 C   0  0  0  0  0  0  0  0  0  0  0  0
  -20.3462   16.1920  -28.3038 N   0  0  0  0  0  0  0  0  0  0  0  0
  -21.7494   16.2149  -28.5232 C   0  0  0  0  0  0  0  0  0  0  0  0
  -22.1916   16.6915  -29.6001 O   0  0  0  0  0  0  0  0  0  0  0  0
  -22.7188   15.6763  -27.4881 C   0  0  0  0  0  0  0  0  0  0  0  0
  -24.0852   15.7526  -28.0453 C   0  0  0  0  0  0  0  0  0  0  0  0
  -25.1213   15.2572  -27.0326 C   0  0  0  0  0  0  0  0  0  0  0  0
  -24.8379   13.8615  -26.6782 C   0  0  0  0  0  0  0  0  0  0  0  0
  -25.7515   13.0684  -25.8520 C   0  0  0  0  0  0  0  0  0  0  0  0
  -26.1769   13.4684  -24.5026 C   0  0  0  0  0  0  0  0  0  0  0  0
  -27.0409   14.6711  -24.4825 C   0  0  0  0  0  0  0  0  0  0  0  0
  -27.4764   15.1014  -23.1017 C   0  0  0  0  0  0  0  0  0  0  0  0
  -28.2856   14.0919  -22.4143 C   0  0  0  0  0  0  0  0  0  0  0  0
  -28.5755   13.0017  -22.9362 O   0  0  0  0  0  0  0  0  0  0  0  0
  -28.7996   14.2932  -21.0896 N   0  0  0  0  0  0  0  0  0  0  0  0
  -29.5710   13.3476  -20.3886 C   0  0  0  0  0  0  0  0  0  0  0  0
  -30.9295   13.2582  -20.5138 C   0  0  0  0  0  0  0  0  0  0  0  0
  -31.6798   12.3184  -19.8067 C   0  0  0  0  0  0  0  0  0  0  0  0
  -33.1189   12.2133  -19.9460 C   0  0  0  0  0  0  0  0  0  0  0  0
  -33.6949   13.2265  -20.9545 C   0  0  0  0  0  0  0  0  0  0  0  0
  -33.9204   11.4418  -19.3857 N   0  0  0  0  0  0  0  0  0  0  0  0
  -33.7637   10.4608  -18.4835 N   0  0  0  0  0  0  0  0  0  0  0  0
  -34.0491   10.6907  -17.0969 C   0  0  0  0  0  0  0  0  0  0  0  0
  -34.7610   11.7271  -16.7737 N   0  0  0  0  0  0  0  0  0  0  0  0
  -33.5848    9.8279  -16.0659 N   0  0  0  0  0  0  0  0  0  0  0  0
  -30.9995   11.4745  -18.9692 C   0  0  0  0  0  0  0  0  0  0  0  0
  -29.6011   11.5267  -18.8052 C   0  0  0  0  0  0  0  0  0  0  0  0
  -28.9250   10.6012  -17.9033 C   0  0  0  0  0  0  0  0  0  0  0  0
  -29.8433    9.5952  -17.2022 C   0  0  0  0  0  0  0  0  0  0  0  0
  -27.7013   10.5557  -17.6770 N   0  0  0  0  0  0  0  0  0  0  0  0
  -26.6284   11.2299  -18.0955 N   0  0  0  0  0  0  0  0  0  0  0  0
  -26.0148   12.2591  -17.2966 C   0  0  0  0  0  0  0  0  0  0  0  0
  -26.4987   12.4263  -16.1081 N   0  0  0  0  0  0  0  0  0  0  0  0
  -24.9404   13.0372  -17.7919 N   0  0  0  0  0  0  0  0  0  0  0  0
  -28.9362   12.4679  -19.5270 C   0  0  0  0  0  0  0  0  0  0  0  0
  -19.1408   18.0493  -29.4202 C   0  0  0  0  0  0  0  0  0  0  0  0
  -18.3668   18.5297  -30.4563 C   0  0  0  0  0  0  0  0  0  0  0  0
  -17.9594   19.9462  -30.5232 C   0  0  0  0  0  0  0  0  0  0  0  0
  -18.3511   20.8450  -29.4176 C   0  0  0  0  0  0  0  0  0  0  0  0
  -17.2823   20.3839  -31.5078 N   0  0  0  0  0  0  0  0  0  0  0  0
  -16.9079   21.7266  -31.5457 N   0  0  0  0  0  0  0  0  0  0  0  0
  -15.5318   22.1024  -31.6569 C   0  0  0  0  0  0  0  0  0  0  0  0
  -14.6574   21.3198  -31.1514 N   0  0  0  0  0  0  0  0  0  0  0  0
  -15.1800   23.3179  -32.3219 N   0  0  0  0  0  0  0  0  0  0  0  0
  -17.9453   17.6961  -31.4523 C   0  0  0  0  0  0  0  0  0  0  0  0
  -24.8904   14.4850  -24.6252 Cl  0  0  0  0  0  0  0  0  0  0  0  0
  -24.8904   14.4850  -24.6251 Cl  0  0  0  0  0  0  0  0  0  0  0  0
  -24.8886   14.4858  -24.6273 Cl  0  0  0  0  0  0  0  0  0  0  0  0
  -24.8866   14.4867  -24.6296 Cl  0  0  0  0  0  0  0  0  0  0  0  0
  1  2  1  0
  2  3  2  3
  3  4  1  0
  4  5  1  0
  5  6  2  0
  5  7  1  0
  2  8  1  0
  8  9  2  0
  9 10  1  0
 10 11  1  0
 11 12  1  0
 12 13  2  0
 12 14  1  0
 14 15  1  0
 15 16  1  0
 16 17  1  0
 17 18  1  0
 18 19  1  0
 19 20  1  0
 20 21  1  0
 21 22  1  0
 22 23  2  0
 22 24  1  0
 24 25  1  0
 25 26  2  0
 26 27  1  0
 27 28  1  0
 28 29  1  0
 28 30  2  3
 30 31  1  0
 31 32  1  0
 32 33  2  0
 32 34  1  0
 27 35  2  0
 35 36  1  0
 36 37  1  0
 37 38  1  0
 37 39  2  3
 39 40  1  0
 40 41  1  0
 41 42  2  0
 41 43  1  0
 36 44  2  0
 10 45  2  0
 45 46  1  0
 46 47  1  0
 47 48  1  0
 47 49  2  3
 49 50  1  0
 50 51  1  0
 51 52  2  0
 51 53  1  0
 46 54  2  0
 54  8  1  0
 44 25  1  0
M  END
$$$$
