
     RDKit          3D

 26 29  0  0  0  0  0  0  0  0999 V2000
  -19.8302   39.8884  -19.8892 C   0  0  0  0  0  0  0  0  0  0  0  0
  -19.4654   40.2093  -21.2902 C   0  0  2  0  0  0  0  0  0  0  0  0
  -18.1792   40.9668  -21.4377 C   0  0  0  0  0  0  0  0  0  0  0  0
  -18.3226   42.1963  -22.2961 C   0  0  2  0  0  0  0  0  0  0  0  0
  -17.1322   42.8768  -22.3276 O   0  0  0  0  0  0  0  0  0  0  0  0
  -19.4705   43.0441  -22.0393 C   0  0  1  0  0  0  0  0  0  0  0  0
  -20.7148   42.2834  -21.5865 C   0  0  1  0  0  0  0  0  0  0  0  0
  -21.9290   43.0300  -22.0662 C   0  0  0  0  0  0  0  0  0  0  0  0
  -21.9294   44.3969  -21.4179 C   0  0  0  0  0  0  0  0  0  0  0  0
  -20.5573   45.0333  -21.4418 C   0  0  0  0  0  0  0  0  0  0  0  0
  -20.4662   46.2957  -21.7764 C   0  0  0  0  0  0  0  0  0  0  0  0
  -19.2067   47.0238  -21.8373 C   0  0  0  0  0  0  0  0  0  0  0  0
  -19.1591   48.2240  -22.1591 O   0  0  0  0  0  0  0  0  0  0  0  0
  -18.0367   46.2279  -21.4926 C   0  0  0  0  0  0  0  0  0  0  0  0
  -18.1300   44.9661  -21.1626 C   0  0  0  0  0  0  0  0  0  0  0  0
  -19.3686   44.2234  -21.1050 C   0  0  2  0  0  0  0  0  0  0  0  0
  -19.5929   43.7888  -19.6492 C   0  0  0  0  0  0  0  0  0  0  0  0
  -20.5657   40.8980  -22.0805 C   0  0  2  0  0  0  0  0  0  0  0  0
  -21.6821   39.9509  -21.8647 C   0  0  0  0  0  0  0  0  0  0  0  0
  -20.9769   38.5956  -22.0406 C   0  0  0  0  0  0  0  0  0  0  0  0
  -19.4857   38.8947  -22.0745 C   0  0  1  0  0  0  0  0  0  0  0  0
  -19.1739   39.1529  -23.4120 O   0  0  0  0  0  0  0  0  0  0  0  0
  -18.6466   37.8602  -21.4801 C   0  0  0  0  0  0  0  0  0  0  0  0
  -18.9078   37.3924  -20.3918 O   0  0  0  0  0  0  0  0  0  0  0  0
  -17.4568   37.3574  -22.1915 C   0  0  0  0  0  0  0  0  0  0  0  0
  -16.7811   36.4221  -21.4131 O   0  0  0  0  0  0  0  0  0  0  0  0
  2  1  1  1
  2  3  1  0
  3  4  1  0
  4  5  1  1
  6  4  1  1
  6  7  1  0
  7  8  1  6
  8  9  1  0
  9 10  1  0
 10 11  2  0
 11 12  1  0
 12 13  2  0
 12 14  1  0
 14 15  2  0
 15 16  1  0
 16 17  1  1
  7 18  1  0
 18 19  1  1
 19 20  1  0
 20 21  1  0
 21 22  1  6
 21 23  1  0
 23 24  2  0
 23 25  1  0
 25 26  1  0
 18  2  1  0
 21  2  1  0
 16  6  1  0
 16 10  1  0
M  END
$$$$
