
     RDKit          3D

 20 22  0  0  0  0  0  0  0  0999 V2000
  -17.5291   40.9647  -20.5679 O   0  0  0  0  0  0  0  0  0  0  0  0
  -18.1375   41.5293  -21.5134 C   0  0  0  0  0  0  0  0  0  0  0  0
  -18.1197   42.9891  -21.4927 C   0  0  0  0  0  0  0  0  0  0  0  0
  -18.8141   43.9133  -22.2478 C   0  0  0  0  0  0  0  0  0  0  0  0
  -18.5678   45.2042  -22.0815 C   0  0  0  0  0  0  0  0  0  0  0  0
  -17.6257   45.6208  -21.1618 C   0  0  0  0  0  0  0  0  0  0  0  0
  -17.0664   44.0109  -20.4993 S   0  0  0  0  0  0  0  0  0  0  0  0
  -18.8055   40.7828  -22.5315 C   0  0  0  0  0  0  0  0  0  0  0  0
  -19.2583   41.2515  -23.7326 N   0  0  0  0  0  0  0  0  0  0  0  0
  -19.8369   40.3326  -24.3951 O   0  0  0  0  0  0  0  0  0  0  0  0
  -19.8063   39.2343  -23.6967 N   0  0  0  0  0  4  0  0  0  0  0  0
  -20.3552   38.0107  -24.0727 O   0  0  0  0  0  1  0  0  0  0  0  0
  -19.1729   39.4499  -22.5130 C   0  0  0  0  0  0  0  0  0  0  0  0
  -19.0514   38.5092  -21.4293 C   0  0  0  0  0  0  0  0  0  0  0  0
  -19.2852   38.8829  -20.2290 O   0  0  0  0  0  0  0  0  0  0  0  0
  -18.6669   37.1419  -21.6537 C   0  0  0  0  0  0  0  0  0  0  0  0
  -18.2010   36.5145  -22.7819 C   0  0  0  0  0  0  0  0  0  0  0  0
  -17.9385   35.2160  -22.7723 C   0  0  0  0  0  0  0  0  0  0  0  0
  -18.1464   34.4979  -21.5872 C   0  0  0  0  0  0  0  0  0  0  0  0
  -18.7363   35.7730  -20.4871 S   0  0  0  0  0  0  0  0  0  0  0  0
  1  2  2  0
  2  3  1  0
  3  4  2  0
  4  5  1  0
  5  6  2  0
  6  7  1  0
  2  8  1  0
  8  9  2  0
  9 10  1  0
 10 11  1  0
 11 12  1  0
 11 13  2  0
 13 14  1  0
 14 15  2  0
 14 16  1  0
 16 17  2  0
 17 18  1  0
 18 19  2  0
 19 20  1  0
  7  3  1  0
 13  8  1  0
 20 16  1  0
M  CHG  2  11   1  12  -1
M  END
$$$$
