
     RDKit          3D

 24 27  0  0  0  0  0  0  0  0999 V2000
   -0.5631   16.5497  -24.5254 C   0  0  0  0  0  0  0  0  0  0  0  0
   -1.2219   17.7709  -24.6732 O   0  0  0  0  0  0  0  0  0  0  0  0
   -0.6307   18.7443  -23.8912 C   0  0  1  0  0  0  0  0  0  0  0  0
   -1.0390   18.6518  -22.4370 C   0  0  0  0  0  0  0  0  0  0  0  0
    0.1361   18.4833  -21.5216 C   0  0  0  0  0  0  0  0  0  0  0  0
    1.1666   19.5842  -21.6785 C   0  0  1  0  0  0  0  0  0  0  0  0
    2.3827   19.2507  -20.9336 C   0  0  0  0  0  0  0  0  0  0  0  0
    3.0258   18.2123  -21.2195 O   0  0  0  0  0  0  0  0  0  0  0  0
    2.8718   20.1004  -19.8579 C   0  0  0  0  0  0  0  0  0  0  0  0
    3.5549   19.5986  -18.7704 C   0  0  0  0  0  0  0  0  0  0  0  0
    4.0013   20.4308  -17.7717 C   0  0  0  0  0  0  0  0  0  0  0  0
    3.7841   21.7861  -17.8211 C   0  0  0  0  0  0  0  0  0  0  0  0
    4.2311   22.5693  -16.8337 N   0  0  0  0  0  0  0  0  0  0  0  0
    4.0397   23.9056  -16.8419 C   0  0  0  0  0  0  0  0  0  0  0  0
    3.3619   24.4794  -17.9024 C   0  0  0  0  0  0  0  0  0  0  0  0
    2.8991   23.6825  -18.9212 C   0  0  0  0  0  0  0  0  0  0  0  0
    3.1065   22.3181  -18.8914 C   0  0  0  0  0  0  0  0  0  0  0  0
    2.6651   21.4754  -19.8837 C   0  0  0  0  0  0  0  0  0  0  0  0
    3.1709   25.9493  -17.8767 C   0  0  0  0  0  0  0  0  0  0  0  0
    4.3356   26.5492  -17.1436 C   0  0  0  0  0  0  0  0  0  0  0  0
    4.3542   26.0157  -15.7230 C   0  0  0  0  0  0  0  0  0  0  0  0
    4.5378   24.6235  -15.7799 O   0  0  0  0  0  0  0  0  0  0  0  0
    1.4982   19.6790  -23.1510 C   0  0  0  0  0  0  0  0  0  0  0  0
    0.8746   18.5282  -23.9293 C   0  0  0  0  0  0  0  0  0  0  0  0
  1  2  1  0
  3  2  1  6
  3  4  1  0
  4  5  1  0
  5  6  1  0
  6  7  1  1
  7  8  2  0
  7  9  1  0
  9 10  2  0
 10 11  1  0
 11 12  2  0
 12 13  1  0
 13 14  2  0
 14 15  1  0
 15 16  2  0
 16 17  1  0
 17 18  2  0
 15 19  1  0
 19 20  1  0
 20 21  1  0
 21 22  1  0
  6 23  1  0
 23 24  1  0
 24  3  1  0
 18  9  1  0
 17 12  1  0
 22 14  1  0
M  END
$$$$
