
     RDKit          3D

 30 33  0  0  0  0  0  0  0  0999 V2000
  -24.0557   29.3732  -27.9806 C   0  0  0  0  0  0  0  0  0  0  0  0
  -23.6667   30.7894  -27.7579 C   0  0  0  0  0  0  0  0  0  0  0  0
  -24.2696   31.8610  -28.3757 C   0  0  0  0  0  0  0  0  0  0  0  0
  -23.8940   33.1767  -28.1556 C   0  0  0  0  0  0  0  0  0  0  0  0
  -24.5897   34.2749  -28.8203 C   0  0  1  0  0  0  0  0  0  0  0  0
  -24.0696   34.3168  -30.2631 C   0  0  0  0  0  0  0  0  0  0  0  0
  -26.0374   34.1547  -28.8545 N   0  0  0  0  0  0  0  0  0  0  0  0
  -26.8495   34.7830  -27.8798 C   0  0  0  0  0  0  0  0  0  0  0  0
  -26.2581   35.5402  -26.8572 C   0  0  0  0  0  0  0  0  0  0  0  0
  -26.9990   36.1561  -25.8743 C   0  0  0  0  0  0  0  0  0  0  0  0
  -28.3703   36.0435  -25.8674 C   0  0  0  0  0  0  0  0  0  0  0  0
  -28.9688   35.3160  -26.8463 C   0  0  0  0  0  0  0  0  0  0  0  0
  -28.2270   34.6843  -27.8527 C   0  0  0  0  0  0  0  0  0  0  0  0
  -28.9859   33.9574  -28.8349 C   0  0  0  0  0  0  0  0  0  0  0  0
  -28.4584   33.2480  -29.7028 O   0  0  0  0  0  0  0  0  0  0  0  0
  -30.3717   34.0334  -28.8367 O   0  0  0  0  0  0  0  0  0  0  0  0
  -22.8532   33.3828  -27.2623 C   0  0  0  0  0  0  0  0  0  0  0  0
  -22.4744   34.6416  -27.0602 N   0  0  0  0  0  0  0  0  0  0  0  0
  -21.4574   34.9335  -26.2185 C   0  0  0  0  0  0  0  0  0  0  0  0
  -21.0366   36.2628  -26.0074 N   0  0  0  0  0  0  0  0  0  0  0  0
  -20.0033   36.6056  -25.0906 C   0  0  0  0  0  0  0  0  0  0  0  0
  -19.0179   37.4420  -25.9404 C   0  0  0  0  0  0  0  0  0  0  0  0
  -19.6964   38.5875  -26.2570 O   0  0  0  0  0  0  0  0  0  0  0  0
  -20.7617   38.4373  -27.1252 C   0  0  0  0  0  0  0  0  0  0  0  0
  -21.6845   37.3108  -26.7700 C   0  0  0  0  0  0  0  0  0  0  0  0
  -20.8399   33.8791  -25.5879 C   0  0  0  0  0  0  0  0  0  0  0  0
  -21.2242   32.5548  -25.7888 C   0  0  0  0  0  0  0  0  0  0  0  0
  -20.6713   31.5923  -25.2221 O   0  0  0  0  0  0  0  0  0  0  0  0
  -22.2380   32.3348  -26.6359 N   0  0  0  0  0  0  0  0  0  0  0  0
  -22.6430   31.0758  -26.8848 C   0  0  0  0  0  0  0  0  0  0  0  0
  1  2  1  0
  2  3  1  0
  3  4  2  0
  4  5  1  0
  5  6  1  6
  5  7  1  0
  7  8  1  0
  8  9  2  0
  9 10  1  0
 10 11  2  0
 11 12  1  0
 12 13  2  0
 13 14  1  0
 14 15  2  0
 14 16  1  0
  4 17  1  0
 17 18  2  0
 18 19  1  0
 19 20  1  0
 20 21  1  0
 21 22  1  0
 22 23  1  0
 23 24  1  0
 24 25  1  0
 19 26  2  0
 26 27  1  0
 27 28  2  0
 27 29  1  0
 29 30  1  0
 30  2  2  0
 13  8  1  0
 29 17  1  0
 25 20  1  0
M  END
$$$$
