
     RDKit          3D

 12 13  0  0  0  0  0  0  0  0999 V2000
  -12.2236   -2.0597  -34.6690 S   0  0  0  0  0  0  0  0  0  0  0  0
  -13.2696   -2.5970  -33.5086 C   0  0  0  0  0  0  0  0  0  0  0  0
  -13.6713   -3.8547  -33.2865 N   0  0  0  0  0  0  0  0  0  0  0  0
  -14.5011   -3.8028  -32.2643 N   0  0  0  0  0  0  0  0  0  0  0  0
  -14.6129   -2.5510  -31.8619 N   0  0  0  0  0  0  0  0  0  0  0  0
  -13.8462   -1.7636  -32.6286 N   0  0  0  0  0  0  0  0  0  0  0  0
  -13.6954   -0.3504  -32.5118 C   0  0  0  0  0  0  0  0  0  0  0  0
  -13.0050    0.2015  -31.4571 C   0  0  0  0  0  0  0  0  0  0  0  0
  -12.8608    1.5898  -31.3486 C   0  0  0  0  0  0  0  0  0  0  0  0
  -13.4018    2.4380  -32.2875 C   0  0  0  0  0  0  0  0  0  0  0  0
  -14.0914    1.8784  -33.3401 C   0  0  0  0  0  0  0  0  0  0  0  0
  -14.2300    0.5082  -33.4412 C   0  0  0  0  0  0  0  0  0  0  0  0
  1  2  2  0
  2  3  1  0
  3  4  1  0
  4  5  2  0
  5  6  1  0
  6  7  1  0
  7  8  2  0
  8  9  1  0
  9 10  2  0
 10 11  1  0
 11 12  2  0
  6  2  1  0
 12  7  1  0
M  END
$$$$
