
     RDKit          3D

 30 32  0  0  0  0  0  0  0  0999 V2000
  -22.0799   46.2817  -19.6392 C   0  0  0  0  0  0  0  0  0  0  0  0
  -21.4449   44.9515  -19.5834 C   0  0  0  0  0  0  0  0  0  0  0  0
  -20.2568   44.7546  -20.2491 C   0  0  0  0  0  0  0  0  0  0  0  0
  -19.6242   43.5204  -20.2241 C   0  0  0  0  0  0  0  0  0  0  0  0
  -20.2259   42.4930  -19.5083 C   0  0  0  0  0  0  0  0  0  0  0  0
  -19.4021   40.9489  -19.4970 S   0  0  0  0  0  6  0  0  0  0  0  0
  -20.3239   39.9211  -20.0680 O   0  0  0  0  0  0  0  0  0  0  0  0
  -19.1607   40.5763  -18.0588 O   0  0  0  0  0  0  0  0  0  0  0  0
  -17.9347   41.0318  -20.3932 N   0  0  0  0  0  0  0  0  0  0  0  0
  -16.8687   41.8356  -19.9166 C   0  0  0  0  0  0  0  0  0  0  0  0
  -16.1524   42.6936  -20.7264 C   0  0  0  0  0  0  0  0  0  0  0  0
  -15.1141   43.4789  -20.2702 C   0  0  0  0  0  0  0  0  0  0  0  0
  -14.7659   43.4111  -18.9399 C   0  0  0  0  0  0  0  0  0  0  0  0
  -13.6902   44.2336  -18.4996 N   0  0  0  0  0  0  0  0  0  0  0  0
  -13.7118   45.4824  -18.0574 N   0  0  0  0  0  0  0  0  0  0  0  0
  -12.4796   45.9167  -17.7341 C   0  0  0  0  0  0  0  0  0  0  0  0
  -12.0979   47.2615  -17.2025 C   0  0  0  0  0  0  0  0  0  0  0  0
  -12.2820   48.2338  -18.1902 F   0  0  0  0  0  0  0  0  0  0  0  0
  -12.9082   47.5360  -16.1122 F   0  0  0  0  0  0  0  0  0  0  0  0
  -10.7680   47.2849  -16.8750 F   0  0  0  0  0  0  0  0  0  0  0  0
  -11.6181   44.8773  -17.9869 C   0  0  0  0  0  0  0  0  0  0  0  0
  -12.3826   43.8380  -18.4619 C   0  0  0  0  0  0  0  0  0  0  0  0
  -11.8981   42.4936  -18.8749 C   0  0  0  0  0  0  0  0  0  0  0  0
  -12.8109   41.5450  -18.4516 F   0  0  0  0  0  0  0  0  0  0  0  0
  -10.6451   42.2210  -18.3692 F   0  0  0  0  0  0  0  0  0  0  0  0
  -11.8213   42.3943  -20.2556 F   0  0  0  0  0  0  0  0  0  0  0  0
  -15.4486   42.5701  -18.0859 C   0  0  0  0  0  0  0  0  0  0  0  0
  -16.4826   41.7971  -18.5717 C   0  0  0  0  0  0  0  0  0  0  0  0
  -21.4124   42.6666  -18.8358 C   0  0  0  0  0  0  0  0  0  0  0  0
  -22.0153   43.9021  -18.8795 C   0  0  0  0  0  0  0  0  0  0  0  0
  1  2  1  0
  2  3  2  0
  3  4  1  0
  4  5  2  0
  5  6  1  0
  6  7  2  0
  6  8  2  0
  6  9  1  0
  9 10  1  0
 10 11  2  0
 11 12  1  0
 12 13  2  0
 13 14  1  0
 14 15  1  0
 15 16  2  0
 16 17  1  0
 17 18  1  0
 17 19  1  0
 17 20  1  0
 16 21  1  0
 21 22  2  0
 22 23  1  0
 23 24  1  0
 23 25  1  0
 23 26  1  0
 13 27  1  0
 27 28  2  0
  5 29  1  0
 29 30  2  0
 30  2  1  0
 28 10  1  0
 22 14  1  0
M  END
$$$$
