
     RDKit          3D

 17 18  0  0  0  0  0  0  0  0999 V2000
  -24.8366   31.9486  -28.3823 C   0  0  0  0  0  0  0  0  0  0  0  0
  -24.5736   31.2292  -27.0840 C   0  0  0  0  0  0  0  0  0  0  0  0
  -23.3812   30.3432  -27.1880 N   0  0  0  0  0  0  0  0  0  0  0  0
  -23.5516   28.9939  -27.5741 C   0  0  0  0  0  0  0  0  0  0  0  0
  -24.6491   28.3010  -27.7962 C   0  0  0  0  0  0  0  0  0  0  0  0
  -24.5180   26.9789  -28.3631 C   0  0  0  0  0  0  0  0  0  0  0  0
  -25.6995   26.3484  -28.9977 C   0  0  0  0  0  0  0  0  0  0  0  0
  -23.4421   26.3306  -28.3428 O   0  0  0  0  0  0  0  0  0  0  0  0
  -21.8777   28.3417  -27.6848 S   0  0  0  0  0  0  0  0  0  0  0  0
  -21.0923   29.8186  -27.0921 C   0  0  0  0  0  0  0  0  0  0  0  0
  -19.7780   30.0560  -26.8447 C   0  0  0  0  0  0  0  0  0  0  0  0
  -19.3786   31.2932  -26.4150 C   0  0  0  0  0  0  0  0  0  0  0  0
  -20.3169   32.2759  -26.2407 C   0  0  0  0  0  0  0  0  0  0  0  0
  -19.8746   33.5220  -25.8021 O   0  0  0  0  0  0  0  0  0  0  0  0
  -20.4616   34.6967  -26.2851 C   0  0  0  0  0  0  0  0  0  0  0  0
  -21.6273   32.0077  -26.4973 C   0  0  0  0  0  0  0  0  0  0  0  0
  -22.0706   30.7485  -26.9378 C   0  0  0  0  0  0  0  0  0  0  0  0
  1  2  1  0
  2  3  1  0
  3  4  1  0
  4  5  2  0
  5  6  1  0
  6  7  1  0
  6  8  2  0
  4  9  1  0
  9 10  1  0
 10 11  2  0
 11 12  1  0
 12 13  2  0
 13 14  1  0
 14 15  1  0
 13 16  1  0
 16 17  2  0
 17  3  1  0
 17 10  1  0
M  END
$$$$
