
     RDKit          3D

 21 23  0  0  0  0  0  0  0  0999 V2000
  -27.4094   26.5833  -39.3623 O   0  0  0  0  0  0  0  0  0  0  0  0
  -27.8524   25.8889  -38.4335 C   0  0  0  0  0  0  0  0  0  0  0  0
  -29.1789   25.3796  -38.2960 N   0  0  0  0  0  0  0  0  0  0  0  0
  -29.2612   24.6350  -37.0961 C   0  0  0  0  0  0  0  0  0  0  0  0
  -30.2854   23.9292  -36.4660 C   0  0  0  0  0  0  0  0  0  0  0  0
  -30.0862   23.2850  -35.2800 C   0  0  0  0  0  0  0  0  0  0  0  0
  -28.8624   23.3054  -34.6553 C   0  0  0  0  0  0  0  0  0  0  0  0
  -28.5343   22.3158  -32.8194 I   0  0  0  0  0  0  0  0  0  0  0  0
  -27.8466   23.9963  -35.2653 C   0  0  0  0  0  0  0  0  0  0  0  0
  -28.0411   24.6464  -36.4585 C   0  0  0  0  0  0  0  0  0  0  0  0
  -27.0916   25.4447  -37.2801 C   0  0  0  0  0  0  0  0  0  0  0  0
  -25.8360   25.7051  -36.9880 C   0  0  0  0  0  0  0  0  0  0  0  0
  -24.7736   24.7301  -37.1176 C   0  0  0  0  0  0  0  0  0  0  0  0
  -25.0300   23.4208  -37.4434 C   0  0  0  0  0  0  0  0  0  0  0  0
  -23.9945   22.5261  -37.5189 C   0  0  0  0  0  0  0  0  0  0  0  0
  -24.4072   20.7138  -37.9757 Br  0  0  0  0  0  0  0  0  0  0  0  0
  -22.7237   22.9534  -37.2695 C   0  0  0  0  0  0  0  0  0  0  0  0
  -21.6920   22.0206  -37.3538 O   0  0  0  0  0  0  0  0  0  0  0  0
  -22.4243   24.2581  -36.9407 C   0  0  0  0  0  0  0  0  0  0  0  0
  -20.6172   24.8088  -36.5995 Br  0  0  0  0  0  0  0  0  0  0  0  0
  -23.4805   25.1422  -36.8695 C   0  0  0  0  0  0  0  0  0  0  0  0
  1  2  2  0
  2  3  1  0
  3  4  1  0
  4  5  2  0
  5  6  1  0
  6  7  2  0
  7  8  1  0
  7  9  1  0
  9 10  2  0
 10 11  1  0
 11 12  2  0
 12 13  1  0
 13 14  2  0
 14 15  1  0
 15 16  1  0
 15 17  2  0
 17 18  1  0
 17 19  1  0
 19 20  1  0
 19 21  2  0
 11  2  1  0
 21 13  1  0
 10  4  1  0
M  END
$$$$
