
     RDKit          3D

 37 41  0  0  0  0  0  0  0  0999 V2000
  -13.2954   46.8316  -21.0714 C   0  0  0  0  0  0  0  0  0  0  0  0
  -13.7950   45.9779  -20.0035 N   0  0  0  0  0  0  0  0  0  0  0  0
  -13.1967   46.0050  -18.7220 C   0  0  0  0  0  0  0  0  0  0  0  0
  -12.7981   47.0868  -18.2308 O   0  0  0  0  0  0  0  0  0  0  0  0
  -13.0306   44.7854  -17.9501 C   0  0  0  0  0  0  0  0  0  0  0  0
  -12.6396   43.5987  -18.5734 C   0  0  0  0  0  0  0  0  0  0  0  0
  -12.4747   42.4123  -17.8939 C   0  0  0  0  0  0  0  0  0  0  0  0
  -12.7151   42.4313  -16.5337 C   0  0  0  0  0  0  0  0  0  0  0  0
  -12.5643   41.2853  -15.8288 F   0  0  0  0  0  0  0  0  0  0  0  0
  -13.1013   43.5954  -15.9062 C   0  0  0  0  0  0  0  0  0  0  0  0
  -13.2640   44.7935  -16.6135 C   0  0  0  0  0  0  0  0  0  0  0  0
  -13.6713   46.0203  -15.8957 C   0  0  0  0  0  0  0  0  0  0  0  0
  -12.8281   47.0865  -16.0869 F   0  0  0  0  0  0  0  0  0  0  0  0
  -14.9365   46.4040  -16.3205 F   0  0  0  0  0  0  0  0  0  0  0  0
  -13.7999   45.6977  -14.5579 F   0  0  0  0  0  0  0  0  0  0  0  0
  -14.9105   45.1079  -20.2748 C   0  0  0  0  0  0  0  0  0  0  0  0
  -15.9106   45.7437  -21.2101 C   0  0  0  0  0  0  0  0  0  0  0  0
  -17.2995   45.1832  -21.0519 C   0  0  0  0  0  0  0  0  0  0  0  0
  -17.3606   43.8695  -20.4860 N   0  0  0  0  0  0  0  0  0  0  0  0
  -18.2901   42.8678  -20.8847 C   0  0  0  0  0  0  0  0  0  0  0  0
  -18.9121   42.9294  -22.0855 N   0  0  0  0  0  0  0  0  0  0  0  0
  -19.7610   42.0199  -22.5070 N   0  0  0  0  0  0  0  0  0  0  0  0
  -20.0868   40.9244  -21.7529 C   0  0  0  0  0  0  0  0  0  0  0  0
  -21.0278   39.9604  -22.2979 C   0  0  0  0  0  0  0  0  0  0  0  0
  -22.2452   40.3307  -22.8892 C   0  0  0  0  0  0  0  0  0  0  0  0
  -22.9061   39.1802  -23.2425 C   0  0  0  0  0  0  0  0  0  0  0  0
  -22.1160   38.1589  -22.8768 N   0  0  0  0  0  0  0  0  0  0  0  0
  -21.0072   38.6249  -22.3179 N   0  0  0  0  0  0  0  0  0  0  0  0
  -19.9609   37.7813  -21.7753 C   0  0  0  0  0  0  0  0  0  0  0  0
  -19.4728   40.8267  -20.5270 C   0  0  0  0  0  0  0  0  0  0  0  0
  -19.7559   39.7293  -19.7431 C   0  0  0  0  0  0  0  0  0  0  0  0
  -19.1167   39.6390  -18.5093 C   0  0  0  0  0  0  0  0  0  0  0  0
  -18.2312   40.5954  -18.0673 C   0  0  0  0  0  0  0  0  0  0  0  0
  -17.9434   41.6968  -18.8541 C   0  0  0  0  0  0  0  0  0  0  0  0
  -18.5644   41.8011  -20.0754 C   0  0  0  0  0  0  0  0  0  0  0  0
  -16.4434   43.4543  -19.4167 C   0  0  0  0  0  0  0  0  0  0  0  0
  -15.6050   44.6450  -18.9992 C   0  0  0  0  0  0  0  0  0  0  0  0
  1  2  1  0
  2  3  1  0
  3  4  2  0
  3  5  1  0
  5  6  2  0
  6  7  1  0
  7  8  2  0
  8  9  1  0
  8 10  1  0
 10 11  2  0
 11 12  1  0
 12 13  1  0
 12 14  1  0
 12 15  1  0
  2 16  1  0
 16 17  1  0
 17 18  1  0
 18 19  1  0
 19 20  1  0
 20 21  2  0
 21 22  1  0
 22 23  2  0
 23 24  1  0
 24 25  2  0
 25 26  1  0
 26 27  2  0
 27 28  1  0
 28 29  1  0
 23 30  1  0
 30 31  2  0
 31 32  1  0
 32 33  2  0
 33 34  1  0
 34 35  2  0
 19 36  1  0
 36 37  1  0
 11  5  1  0
 37 16  1  0
 35 20  1  0
 28 24  1  0
 35 30  1  0
M  END
$$$$
