
     RDKit          3D

 30 33  0  0  0  0  0  0  0  0999 V2000
  -17.0937   18.6245  -29.5269 C   0  0  0  0  0  0  0  0  0  0  0  0
  -17.2684   17.4076  -30.3361 C   0  0  0  0  0  0  0  0  0  0  0  0
  -16.3882   16.4233  -30.5699 N   0  0  0  0  0  0  0  0  0  0  0  0
  -16.9290   15.4807  -31.3639 C   0  0  0  0  0  0  0  0  0  0  0  0
  -16.3831   14.2984  -31.8590 C   0  0  0  0  0  0  0  0  0  0  0  0
  -15.0612   13.9670  -31.5192 N   0  0  0  0  0  0  0  0  0  0  0  0
  -14.3212   14.5325  -30.4130 C   0  0  0  0  0  0  0  0  0  0  0  0
  -14.3304   13.5739  -29.2842 C   0  0  0  0  0  0  0  0  0  0  0  0
  -14.8913   12.3236  -29.3896 C   0  0  0  0  0  0  0  0  0  0  0  0
  -14.9083   11.4436  -28.3090 C   0  0  0  0  0  0  0  0  0  0  0  0
  -14.3454   11.8569  -27.1226 C   0  0  0  0  0  0  0  0  0  0  0  0
  -13.7697   13.0953  -26.9592 C   0  0  0  0  0  0  0  0  0  0  0  0
  -13.0497   13.6374  -25.4608 S   0  0  0  0  0  6  0  0  0  0  0  0
  -11.3364   13.1787  -25.3616 C   0  0  0  0  0  0  0  0  0  0  0  0
  -13.1784   15.1382  -25.3530 O   0  0  0  0  0  0  0  0  0  0  0  0
  -13.8334   13.0217  -24.3330 O   0  0  0  0  0  0  0  0  0  0  0  0
  -13.7734   13.9345  -28.0492 C   0  0  0  0  0  0  0  0  0  0  0  0
  -17.1643   13.5412  -32.6436 N   0  0  0  0  0  0  0  0  0  0  0  0
  -18.4159   13.9130  -32.9346 C   0  0  0  0  0  0  0  0  0  0  0  0
  -18.9769   15.0691  -32.4617 C   0  0  0  0  0  0  0  0  0  0  0  0
  -18.1905   15.8378  -31.6673 N   0  0  0  0  0  0  0  0  0  0  0  0
  -18.4130   17.0177  -31.0435 C   0  0  0  0  0  0  0  0  0  0  0  0
  -19.6429   17.7827  -31.0948 C   0  0  0  0  0  0  0  0  0  0  0  0
  -20.8017   17.3165  -30.5118 C   0  0  0  0  0  0  0  0  0  0  0  0
  -21.9946   18.0436  -30.5639 C   0  0  0  0  0  0  0  0  0  0  0  0
  -22.0337   19.2563  -31.2076 C   0  0  0  0  0  0  0  0  0  0  0  0
  -23.2263   19.9889  -31.2627 O   0  0  0  0  0  0  0  0  0  0  0  0
  -20.8648   19.7019  -31.7820 C   0  0  0  0  0  0  0  0  0  0  0  0
  -20.9274   20.9116  -32.4172 F   0  0  0  0  0  0  0  0  0  0  0  0
  -19.6776   19.0002  -31.7422 C   0  0  0  0  0  0  0  0  0  0  0  0
  1  2  1  0
  2  3  1  0
  3  4  2  0
  4  5  1  0
  5  6  1  0
  6  7  1  0
  7  8  1  0
  8  9  2  0
  9 10  1  0
 10 11  2  0
 11 12  1  0
 12 13  1  0
 13 14  1  0
 13 15  2  0
 13 16  2  0
 12 17  2  0
  5 18  2  0
 18 19  1  0
 19 20  2  0
 20 21  1  0
 21 22  1  0
 22 23  1  0
 23 24  2  0
 24 25  1  0
 25 26  2  0
 26 27  1  0
 26 28  1  0
 28 29  1  0
 28 30  2  0
 22  2  2  0
 30 23  1  0
 21  4  1  0
 17  8  1  0
M  END
$$$$
