
     RDKit          3D

 31 30  0  0  0  0  0  0  0  0999 V2000
  -19.1620   38.9451  -26.9151 N   0  0  0  0  0  0  0  0  0  0  0  0
  -19.8837   40.1656  -27.1229 C   0  0  0  0  0  0  0  0  0  0  0  0
  -21.0343   40.3153  -26.2018 C   0  0  0  0  0  0  0  0  0  0  0  0
  -20.6221   40.3747  -24.7550 C   0  0  0  0  0  0  0  0  0  0  0  0
  -19.9054   39.1799  -24.2709 C   0  0  0  0  0  0  0  0  0  0  0  0
  -19.6357   39.3160  -22.7595 C   0  0  2  0  0  0  0  0  0  0  0  0
  -18.8314   40.4812  -22.5733 N   0  0  0  0  0  0  0  0  0  0  0  0
  -18.6058   40.6958  -21.1301 C   0  0  1  0  0  0  0  0  0  0  0  0
  -17.5475   41.8018  -21.0306 C   0  0  0  0  0  0  0  0  0  0  0  0
  -17.2233   42.1065  -19.6216 C   0  0  0  0  0  0  0  0  0  0  0  0
  -16.1829   43.1592  -19.4698 C   0  0  0  0  0  0  0  0  0  0  0  0
  -14.8657   42.7636  -19.4186 C   0  0  0  0  0  0  0  0  0  0  0  0
  -13.8352   43.7029  -19.2766 C   0  0  0  0  0  0  0  0  0  0  0  0
  -14.1313   45.0511  -19.1854 C   0  0  0  0  0  0  0  0  0  0  0  0
  -15.4391   45.4460  -19.2361 C   0  0  0  0  0  0  0  0  0  0  0  0
  -16.4479   44.5052  -19.3768 C   0  0  0  0  0  0  0  0  0  0  0  0
  -19.8749   41.1569  -20.5054 C   0  0  0  0  0  0  0  0  0  0  0  0
  -20.8645   41.4197  -21.2528 O   0  0  0  0  0  0  0  0  0  0  0  0
  -20.0334   41.3115  -19.1555 O   0  0  0  0  0  0  0  0  0  0  0  0
  -18.8941   38.0673  -22.3591 C   0  0  0  0  0  0  0  0  0  0  0  0
  -17.6518   38.1911  -22.1631 O   0  0  0  0  0  0  0  0  0  0  0  0
  -19.5101   36.8215  -22.1989 N   0  0  0  0  0  0  0  0  0  0  0  0
  -20.9044   36.5040  -22.3653 C   0  0  0  0  0  0  0  0  0  0  0  0
  -21.1189   35.1962  -21.6470 C   0  0  0  0  0  0  0  0  0  0  0  0
  -19.8552   34.9975  -20.8619 C   0  0  0  0  0  0  0  0  0  0  0  0
  -18.8013   35.6021  -21.8030 C   0  0  1  0  0  0  0  0  0  0  0  0
  -18.5915   34.7010  -22.9571 C   0  0  0  0  0  0  0  0  0  0  0  0
  -18.9765   34.9598  -24.1216 O   0  0  0  0  0  0  0  0  0  0  0  0
  -17.9357   33.5058  -22.7486 O   0  0  0  0  0  0  0  0  0  0  0  0
  -18.7257   39.9226  -22.5071 O   0  0  0  0  0  0  0  0  0  0  0  0
  -18.7286   39.9332  -22.5183 O   0  0  0  0  0  0  0  0  0  0  0  0
  1  2  1  0
  2  3  1  0
  3  4  1  0
  4  5  1  0
  6  5  1  6
  6  7  1  0
  7  8  1  0
  8  9  1  6
  9 10  1  0
 10 11  1  0
 11 12  2  0
 12 13  1  0
 13 14  2  0
 14 15  1  0
 15 16  2  0
  8 17  1  0
 17 18  2  0
 17 19  1  0
  6 20  1  0
 20 21  2  0
 20 22  1  0
 22 23  1  0
 23 24  1  0
 24 25  1  0
 25 26  1  0
 26 27  1  6
 27 28  2  0
 27 29  1  0
 16 11  1  0
 26 22  1  0
M  END
$$$$
