
     RDKit          3D

  9  8  0  0  0  0  0  0  0  0999 V2000
  -18.7731   31.2300  -23.2824 N   0  0  0  0  0  0  0  0  0  0  0  0
  -19.5609   32.4650  -23.1994 C   0  0  0  0  0  0  0  0  0  0  0  0
  -19.1469   33.1533  -21.9239 C   0  0  0  0  0  0  0  0  0  0  0  0
  -18.8510   34.6192  -22.1501 C   0  0  0  0  0  0  0  0  0  0  0  0
  -18.1535   35.2490  -20.9788 C   0  0  0  0  0  0  0  0  0  0  0  0
  -17.2767   36.3861  -21.4186 C   0  0  0  0  0  0  0  0  0  0  0  0
  -18.0372   37.6238  -21.6813 C   0  0  0  0  0  0  0  0  0  0  0  0
  -18.0531   38.1712  -22.8011 O   0  0  0  0  0  0  0  0  0  0  0  0
  -18.7545   38.1931  -20.6521 O   0  0  0  0  0  0  0  0  0  0  0  0
  1  2  1  0
  2  3  1  0
  3  4  1  0
  4  5  1  0
  5  6  1  0
  6  7  1  0
  7  8  2  0
  7  9  1  0
M  END
$$$$
