
     RDKit          3D

 28 31  0  0  0  0  0  0  0  0999 V2000
  -24.9373   27.9113  -29.4058 C   0  0  0  0  0  0  0  0  0  0  0  0
  -25.7111   27.8498  -30.6249 N   0  0  0  0  0  0  0  0  0  0  0  0
  -27.1347   28.0956  -30.5254 C   0  0  0  0  0  0  0  0  0  0  0  0
  -25.1378   27.5656  -31.8723 C   0  0  0  0  0  0  0  0  0  0  0  0
  -24.0748   26.6798  -31.9510 C   0  0  0  0  0  0  0  0  0  0  0  0
  -23.5429   26.4288  -33.1862 C   0  0  0  0  0  0  0  0  0  0  0  0
  -24.0399   27.0326  -34.3299 C   0  0  0  0  0  0  0  0  0  0  0  0
  -25.1052   27.9236  -34.2724 C   0  0  0  0  0  0  0  0  0  0  0  0
  -25.6086   28.5446  -35.4894 C   0  0  0  0  0  0  0  0  0  0  0  0
  -26.6162   27.8927  -36.1651 C   0  0  0  0  0  0  0  0  0  0  0  0
  -27.2815   26.7129  -35.9154 C   0  0  0  0  0  0  0  0  0  0  0  0
  -27.0648   25.9635  -34.9437 O   0  0  0  0  0  0  0  0  0  0  0  0
  -28.2104   26.4911  -36.8906 N   0  0  0  0  0  0  0  0  0  0  0  0
  -29.0822   25.3734  -36.9612 C   0  0  0  0  0  0  0  0  0  0  0  0
  -30.3992   25.4910  -36.5885 C   0  0  0  0  0  0  0  0  0  0  0  0
  -31.2454   24.4023  -36.6579 C   0  0  0  0  0  0  0  0  0  0  0  0
  -30.8179   23.1860  -37.0915 C   0  0  0  0  0  0  0  0  0  0  0  0
  -29.4859   23.0629  -37.4695 C   0  0  0  0  0  0  0  0  0  0  0  0
  -28.6405   24.1464  -37.4013 C   0  0  0  0  0  0  0  0  0  0  0  0
  -26.9697   23.8956  -37.9010 Cl  0  0  0  0  0  0  0  0  0  0  0  0
  -28.1227   27.5101  -37.7256 N   0  0  0  0  0  0  0  0  0  0  0  0
  -27.1727   28.3850  -37.3300 C   0  0  0  0  0  0  0  0  0  0  0  0
  -26.6914   29.5773  -37.8255 C   0  0  0  0  0  0  0  0  0  0  0  0
  -25.6843   30.2086  -37.1312 C   0  0  0  0  0  0  0  0  0  0  0  0
  -25.2334   31.2994  -37.5709 O   0  0  0  0  0  0  0  0  0  0  0  0
  -25.1561   29.7062  -35.9929 N   0  0  0  0  0  0  0  0  0  0  0  0
  -24.0952   30.3816  -35.2712 C   0  0  0  0  0  0  0  0  0  0  0  0
  -25.6241   28.1605  -33.0178 C   0  0  0  0  0  0  0  0  0  0  0  0
  1  2  1  0
  2  3  1  0
  2  4  1  0
  4  5  2  0
  5  6  1  0
  6  7  2  0
  7  8  1  0
  8  9  1  0
  9 10  2  0
 10 11  1  0
 11 12  2  0
 11 13  1  0
 13 14  1  0
 14 15  2  0
 15 16  1  0
 16 17  2  0
 17 18  1  0
 18 19  2  0
 19 20  1  0
 13 21  1  0
 21 22  1  0
 22 23  2  0
 23 24  1  0
 24 25  2  0
 24 26  1  0
 26 27  1  0
  8 28  2  0
 28  4  1  0
 26  9  1  0
 22 10  1  0
 19 14  1  0
M  END
$$$$
