
     RDKit          3D

 26 28  0  0  0  0  0  0  0  0999 V2000
  -18.8143   25.1133  -42.8005 O   0  0  0  0  0  0  0  0  0  0  0  0
  -19.1237   24.1401  -42.0680 C   0  0  0  0  0  0  0  0  0  0  0  0
  -19.3961   24.4222  -40.7395 O   0  0  0  0  0  0  0  0  0  0  0  0
  -19.1880   22.7626  -42.6213 C   0  0  0  0  0  0  0  0  0  0  0  0
  -19.8160   21.8506  -41.6541 N   0  0  0  0  0  0  0  0  0  0  0  0
  -19.0207   20.9098  -40.9736 C   0  0  0  0  0  0  0  0  0  0  0  0
  -17.8060   20.8301  -41.3417 O   0  0  0  0  0  0  0  0  0  0  0  0
  -19.4777   20.0349  -39.8968 C   0  0  0  0  0  0  0  0  0  0  0  0
  -20.7612   19.9629  -39.4707 C   0  0  0  0  0  0  0  0  0  0  0  0
  -21.7563   20.7327  -40.0410 O   0  0  0  0  0  0  0  0  0  0  0  0
  -21.0726   19.0850  -38.4289 C   0  0  0  0  0  0  0  0  0  0  0  0
  -22.3698   19.0411  -38.0016 C   0  0  0  0  0  0  0  0  0  0  0  0
  -22.7528   18.2223  -36.9752 C   0  0  0  0  0  0  0  0  0  0  0  0
  -21.8029   17.4329  -36.3696 C   0  0  0  0  0  0  0  0  0  0  0  0
  -20.4775   17.4393  -36.7641 C   0  0  0  0  0  0  0  0  0  0  0  0
  -20.1280   18.2847  -37.8129 C   0  0  0  0  0  0  0  0  0  0  0  0
  -18.8592   18.3637  -38.2456 N   0  0  0  0  0  0  0  0  0  0  0  0
  -17.8002   17.5583  -37.7333 C   0  0  0  0  0  0  0  0  0  0  0  0
  -16.9002   18.1743  -36.7526 C   0  0  0  0  0  0  0  0  0  0  0  0
  -17.3831   18.6493  -35.5594 C   0  0  0  0  0  0  0  0  0  0  0  0
  -16.5637   19.2545  -34.5996 C   0  0  0  0  0  0  0  0  0  0  0  0
  -15.2214   19.3819  -34.8550 C   0  0  0  0  0  0  0  0  0  0  0  0
  -14.7463   18.9046  -36.0510 C   0  0  0  0  0  0  0  0  0  0  0  0
  -15.5301   18.3171  -36.9876 C   0  0  0  0  0  0  0  0  0  0  0  0
  -18.5645   19.2081  -39.2440 C   0  0  0  0  0  0  0  0  0  0  0  0
  -17.3712   19.2941  -39.6580 O   0  0  0  0  0  0  0  0  0  0  0  0
  1  2  2  0
  2  3  1  0
  2  4  1  0
  4  5  1  0
  5  6  1  0
  6  7  2  0
  6  8  1  0
  8  9  2  0
  9 10  1  0
  9 11  1  0
 11 12  2  0
 12 13  1  0
 13 14  2  0
 14 15  1  0
 15 16  2  0
 16 17  1  0
 17 18  1  0
 18 19  1  0
 19 20  2  0
 20 21  1  0
 21 22  2  0
 22 23  1  0
 23 24  2  0
 17 25  1  0
 25 26  2  0
 25  8  1  0
 16 11  1  0
 24 19  1  0
M  END
$$$$
