
     RDKit          3D

 40 43  0  0  0  0  0  0  0  0999 V2000
  -19.4827   43.7300  -19.2190 C   0  0  0  0  0  0  0  0  0  0  0  0
  -19.7233   44.6046  -20.4294 C   0  0  0  0  0  0  0  0  0  0  0  0
  -21.1455   45.0807  -20.3818 C   0  0  0  0  0  0  0  0  0  0  0  0
  -19.2698   44.0527  -21.5980 N   0  0  0  0  0  0  0  0  0  0  0  0
  -19.8675   42.8800  -22.1160 C   0  0  0  0  0  0  0  0  0  0  0  0
  -19.1537   41.5800  -21.8359 C   0  0  0  0  0  0  0  0  0  0  0  0
  -19.9636   40.4067  -22.4131 C   0  0  0  0  0  0  0  0  0  0  0  0
  -19.8806   39.2299  -21.6089 N   0  0  0  0  0  0  0  0  0  0  0  0
  -19.2852   38.0357  -22.1641 C   0  0  0  0  0  0  0  0  0  0  0  0
  -18.9220   38.0757  -23.3551 O   0  0  0  0  0  0  0  0  0  0  0  0
  -19.1291   36.8782  -21.3739 N   0  0  0  0  0  0  0  0  0  0  0  0
  -18.5395   35.6846  -21.8194 C   0  0  0  0  0  0  0  0  0  0  0  0
  -17.2476   35.2794  -21.6741 C   0  0  0  0  0  0  0  0  0  0  0  0
  -16.7965   34.0523  -22.1778 C   0  0  0  0  0  0  0  0  0  0  0  0
  -17.6411   33.1980  -22.8443 C   0  0  0  0  0  0  0  0  0  0  0  0
  -17.1189   31.9054  -23.3664 C   0  0  0  0  0  0  0  0  0  0  0  0
  -16.6084   31.0605  -22.2398 C   0  0  0  0  0  0  0  0  0  0  0  0
  -18.2383   31.1587  -24.0771 C   0  0  0  0  0  0  0  0  0  0  0  0
  -16.0458   32.1984  -24.3764 C   0  0  0  0  0  0  0  0  0  0  0  0
  -18.9409   33.5859  -23.0001 C   0  0  0  0  0  0  0  0  0  0  0  0
  -19.3751   34.7887  -22.5044 C   0  0  0  0  0  0  0  0  0  0  0  0
  -18.0632   44.3817  -22.2156 C   0  0  0  0  0  0  0  0  0  0  0  0
  -17.0762   45.1263  -21.3540 C   0  0  1  0  0  0  0  0  0  0  0  0
  -16.6328   44.3179  -20.2795 O   0  0  0  0  0  0  0  0  0  0  0  0
  -15.5510   45.0823  -19.8505 C   0  0  1  0  0  0  0  0  0  0  0  0
  -14.8743   44.5770  -18.7036 N   0  0  0  0  0  0  0  0  0  0  0  0
  -15.2865   43.4708  -18.0335 C   0  0  0  0  0  0  0  0  0  0  0  0
  -14.4334   43.2302  -16.9756 C   0  0  0  0  0  0  0  0  0  0  0  0
  -14.5304   41.8031  -15.6935 Br  0  0  0  0  0  0  0  0  0  0  0  0
  -13.4895   44.2416  -17.0390 C   0  0  0  0  0  0  0  0  0  0  0  0
  -12.4149   44.4491  -16.2006 C   0  0  0  0  0  0  0  0  0  0  0  0
  -12.1565   43.5776  -15.1091 N   0  0  0  0  0  0  0  0  0  0  0  0
  -11.6248   45.5186  -16.4704 N   0  0  0  0  0  0  0  0  0  0  0  0
  -11.9067   46.3196  -17.5163 C   0  0  0  0  0  0  0  0  0  0  0  0
  -12.9650   46.1094  -18.3363 N   0  0  0  0  0  0  0  0  0  0  0  0
  -13.7741   45.0647  -18.1094 C   0  0  0  0  0  0  0  0  0  0  0  0
  -14.7145   45.0894  -21.1170 C   0  0  2  0  0  0  0  0  0  0  0  0
  -13.7116   46.0384  -21.0809 O   0  0  0  0  0  0  0  0  0  0  0  0
  -15.8045   45.4552  -22.1366 C   0  0  2  0  0  0  0  0  0  0  0  0
  -15.6850   46.8428  -22.3168 O   0  0  0  0  0  0  0  0  0  0  0  0
  1  2  1  0
  2  3  1  0
  2  4  1  0
  4  5  1  0
  5  6  1  0
  6  7  1  0
  7  8  1  0
  8  9  1  0
  9 10  2  0
  9 11  1  0
 11 12  1  0
 12 13  2  0
 13 14  1  0
 14 15  2  0
 15 16  1  0
 16 17  1  0
 16 18  1  0
 16 19  1  0
 15 20  1  0
 20 21  2  0
  4 22  1  0
 23 22  1  6
 23 24  1  0
 24 25  1  0
 25 26  1  1
 26 27  1  0
 27 28  2  0
 28 29  1  0
 28 30  1  0
 30 31  2  0
 31 32  1  0
 31 33  1  0
 33 34  2  0
 34 35  1  0
 35 36  2  0
 25 37  1  0
 37 38  1  1
 37 39  1  0
 39 40  1  1
 21 12  1  0
 39 23  1  0
 36 26  1  0
 36 30  1  0
M  END
$$$$
