
     RDKit          3D

 15 17  0  0  0  0  0  0  0  0999 V2000
  -16.4214   42.2561  -19.4460 C   0  0  0  0  0  0  0  0  0  0  0  0
  -15.6708   43.4302  -18.9084 C   0  0  0  0  0  0  0  0  0  0  0  0
  -16.2992   44.4251  -18.1952 C   0  0  0  0  0  0  0  0  0  0  0  0
  -15.6079   45.5054  -17.7004 C   0  0  0  0  0  0  0  0  0  0  0  0
  -16.2366   46.4015  -17.0452 O   0  0  0  0  0  0  0  0  0  0  0  0
  -14.2698   45.6261  -17.9019 N   0  0  0  0  0  0  0  0  0  0  0  0
  -13.6348   44.6789  -18.5887 C   0  0  0  0  0  0  0  0  0  0  0  0
  -12.2758   44.7607  -18.8175 C   0  0  0  0  0  0  0  0  0  0  0  0
  -11.6042   43.7868  -19.5268 C   0  0  0  0  0  0  0  0  0  0  0  0
  -12.2947   42.7031  -20.0234 C   0  0  0  0  0  0  0  0  0  0  0  0
  -13.6502   42.6015  -19.8072 C   0  0  0  0  0  0  0  0  0  0  0  0
  -14.3026   43.5663  -19.1071 C   0  0  0  0  0  0  0  0  0  0  0  0
  -11.4424   45.8893  -18.3287 C   0  0  0  0  0  0  0  0  0  0  0  0
  -12.2871   47.1034  -18.0127 C   0  0  0  0  0  0  0  0  0  0  0  0
  -13.5830   46.7550  -17.3722 C   0  0  0  0  0  0  0  0  0  0  0  0
  1  2  1  0
  2  3  2  0
  3  4  1  0
  4  5  2  0
  4  6  1  0
  6  7  1  0
  7  8  2  0
  8  9  1  0
  9 10  2  0
 10 11  1  0
 11 12  2  0
  8 13  1  0
 13 14  1  0
 14 15  1  0
 12  2  1  0
 15  6  1  0
 12  7  1  0
M  END
$$$$
