
     RDKit          3D

 19 20  0  0  0  0  0  0  0  0999 V2000
  -20.5896   34.8990  -22.7483 O   0  0  0  0  0  0  0  0  0  0  0  0
  -19.3772   34.8439  -22.4257 C   0  0  0  0  0  0  0  0  0  0  0  0
  -18.5723   35.9964  -22.7649 N   0  0  0  0  0  0  0  0  0  0  0  0
  -19.1267   37.3091  -22.5546 C   0  0  0  0  0  0  0  0  0  0  0  0
  -18.5669   37.9351  -21.3180 C   0  0  0  0  0  0  0  0  0  0  0  0
  -19.0462   39.2967  -20.9866 C   0  0  0  0  0  0  0  0  0  0  0  0
  -18.3297   40.4479  -21.5133 C   0  0  0  0  0  0  0  0  0  0  0  0
  -17.7625   40.4221  -22.7975 C   0  0  0  0  0  0  0  0  0  0  0  0
  -17.0912   41.4893  -23.3262 C   0  0  0  0  0  0  0  0  0  0  0  0
  -16.9420   42.6449  -22.6144 C   0  0  0  0  0  0  0  0  0  0  0  0
  -17.4882   42.7028  -21.3481 C   0  0  0  0  0  0  0  0  0  0  0  0
  -18.1659   41.6332  -20.8073 C   0  0  0  0  0  0  0  0  0  0  0  0
  -18.8242   33.7106  -21.7628 N   0  0  0  0  0  0  0  0  0  0  0  0
  -19.5429   32.4534  -21.6705 C   0  0  0  0  0  0  0  0  0  0  0  0
  -19.1976   31.6138  -22.8645 C   0  0  0  0  0  0  0  0  0  0  0  0
  -17.9289   30.8323  -22.7076 C   0  0  0  0  0  0  0  0  0  0  0  0
  -18.1969   29.8701  -21.5437 C   0  0  0  0  0  0  0  0  0  0  0  0
  -18.3059   30.7240  -20.3096 C   0  0  0  0  0  0  0  0  0  0  0  0
  -19.3212   31.7853  -20.3556 C   0  0  0  0  0  0  0  0  0  0  0  0
  1  2  2  0
  2  3  1  0
  3  4  1  0
  4  5  1  0
  5  6  1  0
  6  7  1  0
  7  8  2  0
  8  9  1  0
  9 10  2  0
 10 11  1  0
 11 12  2  0
  2 13  1  0
 13 14  1  0
 14 15  1  0
 15 16  1  0
 16 17  1  0
 17 18  1  0
 18 19  1  0
 12  7  1  0
 19 14  1  0
M  END
$$$$
