
     RDKit          3D

 41 42  0  0  0  0  0  0  0  0999 V2000
  -22.3563    1.5256  -32.2888 C   0  0  0  0  0  0  0  0  0  0  0  0
  -21.0670    1.4941  -33.0612 C   0  0  0  0  0  0  0  0  0  0  0  0
  -19.9874    1.0632  -32.0548 C   0  0  0  0  0  0  0  0  0  0  0  0
  -21.0179    0.5173  -34.1754 C   0  0  0  0  0  0  0  0  0  0  0  0
  -19.7386    0.4279  -34.9375 C   0  0  2  0  0  0  0  0  0  0  0  0
  -18.5998    0.1808  -34.0752 N   0  0  0  0  0  0  0  0  0  0  0  0
  -17.4213   -0.3790  -34.6003 C   0  0  0  0  0  0  0  0  0  0  0  0
  -17.5094   -0.8655  -35.7600 O   0  0  0  0  0  0  0  0  0  0  0  0
  -16.1296   -0.4037  -33.8297 C   0  0  2  0  0  0  0  0  0  0  0  0
  -15.2809    0.7610  -33.8826 C   0  0  0  0  0  0  0  0  0  0  0  0
  -13.9315    0.8192  -33.4058 C   0  0  0  0  0  0  0  0  0  0  0  0
  -12.9221    0.9020  -34.3889 C   0  0  0  0  0  0  0  0  0  0  0  0
  -11.6021    0.9507  -34.0809 C   0  0  0  0  0  0  0  0  0  0  0  0
  -11.1476    0.9234  -32.7979 C   0  0  0  0  0  0  0  0  0  0  0  0
  -12.1296    0.8411  -31.8005 C   0  0  0  0  0  0  0  0  0  0  0  0
  -13.4609    0.7924  -32.1215 C   0  0  0  0  0  0  0  0  0  0  0  0
  -15.5096   -1.6887  -33.8047 N   0  0  0  0  0  0  0  0  0  0  0  0
  -16.0592   -2.9431  -34.0806 C   0  0  0  0  0  0  0  0  0  0  0  0
  -17.3181   -3.0435  -34.0209 O   0  0  0  0  0  0  0  0  0  0  0  0
  -15.3417   -4.1749  -34.4364 C   0  0  0  0  0  0  0  0  0  0  0  0
  -13.9298   -4.1120  -34.4840 N   0  0  0  0  0  0  0  0  0  0  0  0
  -13.1951   -5.3147  -34.6478 C   0  0  0  0  0  0  0  0  0  0  0  0
  -13.7815   -6.3690  -35.0271 O   0  0  0  0  0  0  0  0  0  0  0  0
  -11.7548   -5.3679  -34.3858 C   0  0  1  0  0  0  0  0  0  0  0  0
  -11.1866   -4.0137  -34.0156 C   0  0  0  0  0  0  0  0  0  0  0  0
  -11.4495   -6.2415  -33.2459 N   0  0  0  0  0  0  0  0  0  0  0  0
  -11.1756   -5.7198  -31.9573 C   0  0  0  0  0  0  0  0  0  0  0  0
  -10.7268   -4.5544  -31.8907 O   0  0  0  0  0  0  0  0  0  0  0  0
  -11.3930   -6.4796  -30.7077 C   0  0  1  0  0  0  0  0  0  0  0  0
  -10.1263   -7.0225  -30.2683 N   0  0  0  0  0  0  0  0  0  0  0  0
  -11.9505   -5.6339  -29.5840 C   0  0  0  0  0  0  0  0  0  0  0  0
  -13.4197   -5.8085  -29.6158 C   0  0  0  0  0  0  0  0  0  0  0  0
  -13.9980   -6.5474  -30.6192 C   0  0  0  0  0  0  0  0  0  0  0  0
  -15.3820   -6.7308  -30.6794 C   0  0  0  0  0  0  0  0  0  0  0  0
  -16.1852   -6.1641  -29.7207 C   0  0  0  0  0  0  0  0  0  0  0  0
  -17.5806   -6.3101  -29.7251 O   0  0  0  0  0  0  0  0  0  0  0  0
  -15.6191   -5.4182  -28.7052 C   0  0  0  0  0  0  0  0  0  0  0  0
  -14.2426   -5.2480  -28.6628 C   0  0  0  0  0  0  0  0  0  0  0  0
  -19.4780    1.5725  -35.8066 C   0  0  0  0  0  0  0  0  0  0  0  0
  -20.2085    2.5874  -35.8367 O   0  0  0  0  0  0  0  0  0  0  0  0
  -18.3658    1.5573  -36.6536 O   0  0  0  0  0  0  0  0  0  0  0  0
  1  2  1  0
  2  3  1  0
  2  4  1  0
  5  4  1  1
  5  6  1  0
  6  7  1  0
  7  8  2  0
  7  9  1  0
  9 10  1  6
 10 11  1  0
 11 12  2  0
 12 13  1  0
 13 14  2  0
 14 15  1  0
 15 16  2  0
  9 17  1  0
 17 18  1  0
 18 19  2  0
 18 20  1  0
 20 21  1  0
 21 22  1  0
 22 23  2  0
 22 24  1  0
 24 25  1  1
 24 26  1  0
 26 27  1  0
 27 28  2  0
 27 29  1  0
 29 30  1  1
 29 31  1  0
 31 32  1  0
 32 33  2  0
 33 34  1  0
 34 35  2  0
 35 36  1  0
 35 37  1  0
 37 38  2  0
  5 39  1  0
 39 40  2  0
 39 41  1  0
 16 11  1  0
 38 32  1  0
M  END
$$$$
