
     RDKit          3D

 18 19  0  0  0  0  0  0  0  0999 V2000
  -19.8069   41.6591  -17.8429 C   0  0  0  0  0  0  0  0  0  0  0  0
  -19.5897   41.0321  -19.1604 C   0  0  0  0  0  0  0  0  0  0  0  0
  -20.4471   40.2794  -19.8622 N   0  0  0  0  0  0  0  0  0  0  0  0
  -19.9140   39.8929  -20.9885 O   0  0  0  0  0  0  0  0  0  0  0  0
  -18.6966   40.3769  -21.0612 C   0  0  0  0  0  0  0  0  0  0  0  0
  -17.7983   40.1695  -22.1472 N   0  0  0  0  0  0  0  0  0  0  0  0
  -18.1153   39.0101  -23.3565 S   0  0  0  0  0  6  0  0  0  0  0  0
  -19.2442   39.4277  -24.2522 O   0  0  0  0  0  0  0  0  0  0  0  0
  -16.8856   38.8156  -24.1949 O   0  0  0  0  0  0  0  0  0  0  0  0
  -18.5749   37.5061  -22.5809 C   0  0  0  0  0  0  0  0  0  0  0  0
  -19.8663   37.0203  -22.6620 C   0  0  0  0  0  0  0  0  0  0  0  0
  -20.2452   35.8378  -22.0571 C   0  0  0  0  0  0  0  0  0  0  0  0
  -19.3411   35.0835  -21.3388 C   0  0  0  0  0  0  0  0  0  0  0  0
  -19.7133   33.8548  -20.7041 N   0  0  0  0  0  0  0  0  0  0  0  0
  -18.0535   35.5720  -21.2605 C   0  0  0  0  0  0  0  0  0  0  0  0
  -17.6692   36.7524  -21.8624 C   0  0  0  0  0  0  0  0  0  0  0  0
  -18.4449   41.1000  -19.9369 C   0  0  0  0  0  0  0  0  0  0  0  0
  -17.2049   41.8342  -19.5699 C   0  0  0  0  0  0  0  0  0  0  0  0
  1  2  1  0
  2  3  2  0
  3  4  1  0
  4  5  1  0
  5  6  1  0
  6  7  1  0
  7  8  2  0
  7  9  2  0
  7 10  1  0
 10 11  2  0
 11 12  1  0
 12 13  2  0
 13 14  1  0
 13 15  1  0
 15 16  2  0
  5 17  2  0
 17 18  1  0
 17  2  1  0
 16 10  1  0
M  END
$$$$
