
     RDKit          3D

 29 32  0  0  0  0  0  0  0  0999 V2000
  -18.1277   35.0456  -21.7853 C   0  0  0  0  0  0  0  0  0  0  0  0
  -19.0030   36.1837  -21.3721 C   0  0  0  0  0  0  0  0  0  0  0  0
  -19.3213   36.3460  -20.1689 O   0  0  0  0  0  0  0  0  0  0  0  0
  -19.4908   37.0925  -22.2920 O   0  0  0  0  0  0  0  0  0  0  0  0
  -20.2124   38.2356  -21.8266 C   0  0  0  0  0  0  0  0  0  0  0  0
  -19.2599   39.3017  -21.4388 C   0  0  0  0  0  0  0  0  0  0  0  0
  -18.0636   39.1540  -21.7300 O   0  0  0  0  0  0  0  0  0  0  0  0
  -19.6268   40.5461  -20.7295 C   0  0  1  0  0  0  0  0  0  0  0  0
  -21.0231   40.6994  -20.8590 O   0  0  0  0  0  0  0  0  0  0  0  0
  -19.2174   40.3957  -19.2550 C   0  0  0  0  0  0  0  0  0  0  0  0
  -17.9123   41.2431  -19.2184 C   0  0  0  0  0  0  0  0  0  0  0  0
  -18.4493   42.3975  -19.9362 C   0  0  1  0  0  0  0  0  0  0  0  0
  -17.6373   43.5619  -20.2770 C   0  0  2  0  0  0  0  0  0  0  0  0
  -16.6157   43.9553  -19.2432 C   0  0  0  0  0  0  0  0  0  0  0  0
  -15.8803   45.1618  -19.7919 C   0  0  0  0  0  0  0  0  0  0  0  0
  -16.8847   46.2569  -19.8327 C   0  0  0  0  0  0  0  0  0  0  0  0
  -16.5991   47.3527  -19.1563 C   0  0  0  0  0  0  0  0  0  0  0  0
  -17.5306   48.4637  -19.1489 C   0  0  0  0  0  0  0  0  0  0  0  0
  -17.3080   49.4326  -18.3883 O   0  0  0  0  0  0  0  0  0  0  0  0
  -18.7071   48.3916  -20.0506 C   0  0  0  0  0  0  0  0  0  0  0  0
  -19.2006   46.9869  -20.1280 C   0  0  0  0  0  0  0  0  0  0  0  0
  -18.1084   46.0259  -20.6219 C   0  0  1  0  0  0  0  0  0  0  0  0
  -17.7730   46.5220  -22.0341 C   0  0  0  0  0  0  0  0  0  0  0  0
  -18.6473   44.6667  -20.5594 C   0  0  1  0  0  0  0  0  0  0  0  0
  -19.4434   44.2221  -21.7623 C   0  0  1  0  0  0  0  0  0  0  0  0
  -18.7657   44.4661  -22.9619 O   0  0  0  0  0  0  0  0  0  0  0  0
  -19.9871   42.8433  -21.6937 C   0  0  0  0  0  0  0  0  0  0  0  0
  -18.9821   41.7980  -21.2359 C   0  0  2  0  0  0  0  0  0  0  0  0
  -17.9449   41.5180  -22.2558 C   0  0  0  0  0  0  0  0  0  0  0  0
  1  2  1  0
  2  3  2  0
  2  4  1  0
  4  5  1  0
  5  6  1  0
  6  7  2  0
  6  8  1  0
  8  9  1  1
  8 10  1  0
 10 11  1  0
 12 11  1  6
 12 13  1  0
 13 14  1  1
 14 15  1  0
 15 16  1  0
 16 17  2  0
 17 18  1  0
 18 19  2  0
 18 20  1  0
 20 21  1  0
 21 22  1  0
 22 23  1  6
 22 24  1  0
 24 25  1  6
 25 26  1  6
 25 27  1  0
 27 28  1  0
 28 29  1  6
 28  8  1  0
 28 12  1  0
 24 13  1  0
 22 16  1  0
M  END
$$$$
