
     RDKit          3D

 15 14  0  0  0  0  0  0  0  0999 V2000
  -14.3366   -1.0066  -32.4761 Cl  0  0  0  0  0  0  0  0  0  0  0  0
  -12.8662   -2.7450  -31.8417 N   0  0  0  0  0  0  0  0  0  0  0  0
  -14.2788   -2.9226  -31.7486 C   0  0  0  0  0  0  0  0  0  0  0  0
  -15.0076   -2.8514  -33.0300 C   0  0  0  0  0  0  0  0  0  0  0  0
  -14.9670   -1.5701  -33.7976 C   0  0  0  0  0  0  0  0  0  0  0  0
  -15.5374   -0.4731  -33.0605 N   0  0  0  0  0  0  0  0  0  0  0  0
  -14.8920    0.5009  -32.3171 C   0  0  0  0  0  0  0  0  0  0  0  0
  -13.4922    0.5069  -32.2410 C   0  0  0  0  0  0  0  0  0  0  0  0
  -12.7779    1.4431  -31.5214 C   0  0  0  0  0  0  0  0  0  0  0  0
  -13.4692    2.4185  -30.8467 C   0  0  0  0  0  0  0  0  0  0  0  0
  -14.8353    2.4546  -30.8925 C   0  0  0  0  0  0  0  0  0  0  0  0
  -15.5373    1.4823  -31.6377 C   0  0  0  0  0  0  0  0  0  0  0  0
  -16.9423    1.5871  -31.6339 N   0  0  0  0  0  4  0  0  0  0  0  0
  -17.6714    1.3235  -32.5763 O   0  0  0  0  0  0  0  0  0  0  0  0
  -17.5276    2.0676  -30.4582 O   0  0  0  0  0  1  0  0  0  0  0  0
  2  3  1  0
  3  4  1  0
  4  5  1  0
  5  6  1  0
  6  7  1  0
  7  8  2  0
  8  9  1  0
  9 10  2  0
 10 11  1  0
 11 12  2  0
 12 13  1  0
 13 14  2  0
 13 15  1  0
 12  7  1  0
M  CHG  2  13   1  15  -1
M  END
$$$$
