
     RDKit          3D

 27 29  0  0  0  0  0  0  0  0999 V2000
  -17.5608   45.1291  -20.3526 C   0  0  0  0  0  0  0  0  0  0  0  0
  -16.2539   45.0184  -19.6637 C   0  0  0  0  0  0  0  0  0  0  0  0
  -15.3478   46.0576  -19.7181 C   0  0  0  0  0  0  0  0  0  0  0  0
  -15.7151   47.5451  -20.6053 Cl  0  0  0  0  0  0  0  0  0  0  0  0
  -14.1457   45.8982  -19.0582 C   0  0  0  0  0  0  0  0  0  0  0  0
  -13.1493   46.9935  -19.0949 C   0  0  0  0  0  0  0  0  0  0  0  0
  -13.8918   44.7521  -18.3892 N   0  0  0  0  0  4  0  0  0  0  0  0
  -12.6673   44.6351  -17.7388 O   0  0  0  0  0  1  0  0  0  0  0  0
  -14.7708   43.7372  -18.3331 C   0  0  0  0  0  0  0  0  0  0  0  0
  -14.4146   42.2553  -17.4540 Cl  0  0  0  0  0  0  0  0  0  0  0  0
  -15.9916   43.8512  -18.9804 C   0  0  0  0  0  0  0  0  0  0  0  0
  -16.9647   42.7473  -18.9273 C   0  0  0  0  0  0  0  0  0  0  0  0
  -17.7444   42.3502  -17.9139 N   0  0  0  0  0  0  0  0  0  0  0  0
  -18.4470   41.3331  -18.3152 O   0  0  0  0  0  0  0  0  0  0  0  0
  -18.1670   41.0359  -19.5560 C   0  0  0  0  0  0  0  0  0  0  0  0
  -18.7131   39.9800  -20.3976 C   0  0  0  0  0  0  0  0  0  0  0  0
  -19.8523   39.3316  -19.9257 C   0  0  0  0  0  0  0  0  0  0  0  0
  -20.3732   38.3323  -20.7191 C   0  0  0  0  0  0  0  0  0  0  0  0
  -21.5186   37.6783  -20.2476 O   0  0  0  0  0  0  0  0  0  0  0  0
  -19.8173   37.9708  -21.9233 C   0  0  0  0  0  0  0  0  0  0  0  0
  -20.3633   36.9569  -22.7074 O   0  0  0  0  0  0  0  0  0  0  0  0
  -18.6819   38.6112  -22.4022 C   0  0  0  0  0  0  0  0  0  0  0  0
  -18.0993   38.2527  -23.6375 N   0  0  0  0  0  4  0  0  0  0  0  0
  -17.0831   38.8420  -24.0280 O   0  0  0  0  0  0  0  0  0  0  0  0
  -18.6331   37.2649  -24.4173 O   0  0  0  0  0  1  0  0  0  0  0  0
  -18.1595   39.6173  -21.6005 C   0  0  0  0  0  0  0  0  0  0  0  0
  -17.2353   41.9190  -19.9520 N   0  0  0  0  0  0  0  0  0  0  0  0
  1  2  1  0
  2  3  2  0
  3  4  1  0
  3  5  1  0
  5  6  1  0
  5  7  2  0
  7  8  1  0
  7  9  1  0
  9 10  1  0
  9 11  2  0
 11 12  1  0
 12 13  2  0
 13 14  1  0
 14 15  1  0
 15 16  1  0
 16 17  2  0
 17 18  1  0
 18 19  1  0
 18 20  2  0
 20 21  1  0
 20 22  1  0
 22 23  1  0
 23 24  2  0
 23 25  1  0
 22 26  2  0
 15 27  2  0
 11  2  1  0
 27 12  1  0
 26 16  1  0
M  CHG  4   7   1   8  -1  23   1  25  -1
M  END
$$$$
