
     RDKit          3D

 35 38  0  0  0  0  0  0  0  0999 V2000
  -16.7245   42.2962  -19.4671 O   0  0  0  0  0  0  0  0  0  0  0  0
  -16.5723   43.0586  -20.4579 C   0  0  0  0  0  0  0  0  0  0  0  0
  -15.7802   44.3041  -20.2834 C   0  0  0  0  0  0  0  0  0  0  0  0
  -16.3428   45.1894  -19.2591 C   0  0  0  0  0  0  0  0  0  0  0  0
  -16.0910   45.0376  -17.9094 C   0  0  0  0  0  0  0  0  0  0  0  0
  -16.6483   45.9040  -16.9730 C   0  0  0  0  0  0  0  0  0  0  0  0
  -17.4562   46.9180  -17.4062 C   0  0  0  0  0  0  0  0  0  0  0  0
  -17.7295   47.1003  -18.7428 C   0  0  0  0  0  0  0  0  0  0  0  0
  -17.1620   46.2241  -19.6517 C   0  0  0  0  0  0  0  0  0  0  0  0
  -17.1664   42.6792  -21.6741 N   0  0  0  0  0  0  0  0  0  0  0  0
  -17.5267   41.3319  -22.0084 C   0  0  0  0  0  0  0  0  0  0  0  0
  -17.6872   40.6381  -22.9395 N   0  0  0  0  0  0  0  0  0  0  0  0
  -18.0328   39.3885  -22.8904 N   0  0  0  0  0  0  0  0  0  0  0  0
  -18.2351   38.7662  -21.9460 C   0  0  0  0  0  0  0  0  0  0  0  0
  -18.6221   37.4273  -21.3299 C   0  0  0  0  0  0  0  0  0  0  0  0
  -20.0885   37.2049  -21.6150 C   0  0  0  0  0  0  0  0  0  0  0  0
  -20.6403   35.5298  -21.5024 S   0  0  0  0  0  0  0  0  0  0  0  0
  -21.4045   34.8085  -22.9403 C   0  0  0  0  0  0  0  0  0  0  0  0
  -22.7670   35.3394  -23.2492 C   0  0  0  0  0  0  0  0  0  0  0  0
  -22.7896   36.1399  -24.5153 C   0  0  0  0  0  0  0  0  0  0  0  0
  -23.2059   36.1341  -25.6014 N   0  0  0  0  0  0  0  0  0  0  0  0
  -23.0240   37.0466  -26.5065 N   0  0  0  0  0  0  0  0  0  0  0  0
  -22.3948   38.0348  -26.3501 C   0  0  0  0  0  0  0  0  0  0  0  0
  -21.9917   39.2031  -27.0672 N   0  0  0  0  0  0  0  0  0  0  0  0
  -21.2851   40.2782  -26.4791 C   0  0  0  0  0  0  0  0  0  0  0  0
  -21.1028   40.3005  -25.2429 O   0  0  0  0  0  0  0  0  0  0  0  0
  -20.7712   41.3593  -27.3223 C   0  0  0  0  0  0  0  0  0  0  0  0
  -21.8651   41.8971  -28.1673 C   0  0  0  0  0  0  0  0  0  0  0  0
  -22.6739   41.0680  -28.9395 C   0  0  0  0  0  0  0  0  0  0  0  0
  -23.6760   41.5916  -29.7095 C   0  0  0  0  0  0  0  0  0  0  0  0
  -23.9050   42.9716  -29.7335 C   0  0  0  0  0  0  0  0  0  0  0  0
  -23.1065   43.8088  -28.9685 C   0  0  0  0  0  0  0  0  0  0  0  0
  -22.1049   43.2538  -28.2028 C   0  0  0  0  0  0  0  0  0  0  0  0
  -21.8462   37.8016  -24.5532 S   0  0  0  0  0  0  0  0  0  0  0  0
  -17.9107   40.1038  -20.6138 S   0  0  0  0  0  0  0  0  0  0  0  0
  1  2  2  0
  2  3  1  0
  3  4  1  0
  4  5  2  0
  5  6  1  0
  6  7  2  0
  7  8  1  0
  8  9  2  0
  2 10  1  0
 10 11  1  0
 11 12  2  0
 12 13  1  0
 13 14  2  0
 14 15  1  0
 15 16  1  0
 16 17  1  0
 17 18  1  0
 18 19  1  0
 19 20  1  0
 20 21  2  0
 21 22  1  0
 22 23  2  0
 23 24  1  0
 24 25  1  0
 25 26  2  0
 25 27  1  0
 27 28  1  0
 28 29  2  0
 29 30  1  0
 30 31  2  0
 31 32  1  0
 32 33  2  0
 23 34  1  0
 14 35  1  0
  9  4  1  0
 35 11  1  0
 34 20  1  0
 33 28  1  0
M  END
$$$$
