
     RDKit          3D

 22 25  0  0  0  0  0  0  0  0999 V2000
  -16.5903   40.8674  -22.5702 N   0  0  0  0  0  0  0  0  0  0  0  0
  -17.4081   40.1697  -22.2115 C   0  0  0  0  0  0  0  0  0  0  0  0
  -18.4474   39.2758  -21.7353 C   0  0  2  0  0  0  0  0  0  0  0  0
  -19.6307   39.2185  -22.6806 C   0  0  0  0  0  0  0  0  0  0  0  0
  -20.6981   38.6355  -21.7764 C   0  0  0  0  0  0  0  0  0  0  0  0
  -20.2007   38.8403  -20.3608 C   0  0  0  0  0  0  0  0  0  0  0  0
  -19.0988   39.7476  -20.5372 N   0  0  0  0  0  0  0  0  0  0  0  0
  -18.7001   40.8550  -19.7557 C   0  0  0  0  0  0  0  0  0  0  0  0
  -19.2750   41.1508  -18.6607 O   0  0  0  0  0  0  0  0  0  0  0  0
  -17.5857   41.7581  -20.1448 C   0  0  0  0  0  0  0  0  0  0  0  0
  -17.2000   42.6581  -19.1239 N   0  0  0  0  0  0  0  0  0  0  0  0
  -16.2874   43.6762  -19.4777 C   0  0  0  0  0  0  0  0  0  0  0  0
  -17.0986   44.8426  -20.0534 C   0  0  0  0  0  0  0  0  0  0  0  0
  -16.2303   46.0228  -20.3430 C   0  0  0  0  0  0  0  0  0  0  0  0
  -15.2137   45.5897  -21.3977 C   0  0  0  0  0  0  0  0  0  0  0  0
  -14.3932   44.4788  -20.8217 C   0  0  0  0  0  0  0  0  0  0  0  0
  -13.6455   44.9426  -19.5948 C   0  0  0  0  0  0  0  0  0  0  0  0
  -14.6575   45.3357  -18.5598 C   0  0  0  0  0  0  0  0  0  0  0  0
  -14.0551   45.7337  -17.3682 O   0  0  0  0  0  0  0  0  0  0  0  0
  -15.4869   46.4684  -19.1050 C   0  0  0  0  0  0  0  0  0  0  0  0
  -15.5944   44.1941  -18.2204 C   0  0  0  0  0  0  0  0  0  0  0  0
  -15.2105   43.2720  -20.4383 C   0  0  0  0  0  0  0  0  0  0  0  0
  1  2  3  0
  3  2  1  6
  3  4  1  0
  4  5  1  0
  5  6  1  0
  6  7  1  0
  7  8  1  0
  8  9  2  0
  8 10  1  0
 10 11  1  0
 11 12  1  0
 12 13  1  0
 13 14  1  0
 14 15  1  0
 15 16  1  0
 16 17  1  0
 17 18  1  0
 18 19  1  0
 18 20  1  0
 18 21  1  0
 16 22  1  0
  7  3  1  0
 21 12  1  0
 22 12  1  0
 20 14  1  0
M  END
$$$$
