
     RDKit          3D

 34 38  0  0  0  0  0  0  0  0999 V2000
  -23.8645   42.5526  -21.6594 C   0  0  0  0  0  0  0  0  0  0  0  0
  -22.6557   42.7988  -22.5548 C   0  0  0  0  0  0  0  0  0  0  0  0
  -23.0435   43.8140  -23.6000 C   0  0  0  0  0  0  0  0  0  0  0  0
  -22.3603   41.4941  -23.2648 C   0  0  0  0  0  0  0  0  0  0  0  0
  -21.5360   40.6534  -22.3121 C   0  0  0  0  0  0  0  0  0  0  0  0
  -20.1123   41.2408  -22.2283 C   0  0  2  0  0  0  0  0  0  0  0  0
  -19.3978   40.5797  -23.3680 C   0  0  0  0  0  0  0  0  0  0  0  0
  -18.2179   40.9367  -23.6054 O   0  0  0  0  0  0  0  0  0  0  0  0
  -20.0109   39.6201  -24.1235 O   0  0  0  0  0  0  0  0  0  0  0  0
  -19.5972   40.8879  -20.8946 C   0  0  0  0  0  0  0  0  0  0  0  0
  -18.4115   41.5886  -20.3704 C   0  0  0  0  0  0  0  0  0  0  0  0
  -18.2745   43.0275  -20.7052 C   0  0  2  0  0  0  0  0  0  0  0  0
  -18.8859   43.8551  -19.5666 C   0  0  0  0  0  0  0  0  0  0  0  0
  -18.9948   43.4301  -21.9351 C   0  0  0  0  0  0  0  0  0  0  0  0
  -18.5910   44.4417  -22.6713 C   0  0  0  0  0  0  0  0  0  0  0  0
  -17.4008   45.3046  -22.3992 C   0  0  0  0  0  0  0  0  0  0  0  0
  -16.8270   44.9276  -21.0882 C   0  0  2  0  0  0  0  0  0  0  0  0
  -15.4942   45.5608  -20.7651 C   0  0  1  0  0  0  0  0  0  0  0  0
  -14.3395   44.8372  -21.4693 C   0  0  0  0  0  0  0  0  0  0  0  0
  -15.3939   46.9897  -21.1702 C   0  0  0  0  0  0  0  0  0  0  0  0
  -15.2197   47.9352  -19.9905 C   0  0  1  0  0  0  0  0  0  0  0  0
  -16.3573   48.0549  -19.2278 O   0  0  0  0  0  0  0  0  0  0  0  0
  -14.0654   47.5157  -19.1109 C   0  0  2  0  0  0  0  0  0  0  0  0
  -12.8342   47.6186  -19.7656 O   0  0  0  0  0  0  0  0  0  0  0  0
  -14.3252   46.1355  -18.5714 C   0  0  0  0  0  0  0  0  0  0  0  0
  -14.8101   46.3404  -17.1199 C   0  0  0  0  0  0  0  0  0  0  0  0
  -12.9930   45.4392  -18.4154 C   0  0  0  0  0  0  0  0  0  0  0  0
  -15.3644   45.3652  -19.2664 C   0  0  2  0  0  0  0  0  0  0  0  0
  -15.2444   43.9160  -18.9260 C   0  0  0  0  0  0  0  0  0  0  0  0
  -16.0341   42.9683  -19.7148 C   0  0  0  0  0  0  0  0  0  0  0  0
  -16.8142   43.4356  -20.8871 C   0  0  1  0  0  0  0  0  0  0  0  0
  -16.3694   42.7106  -22.1645 C   0  0  0  0  0  0  0  0  0  0  0  0
  -20.2184   42.7153  -22.3975 C   0  0  2  0  0  0  0  0  0  0  0  0
  -21.4645   43.2545  -21.7270 C   0  0  0  0  0  0  0  0  0  0  0  0
  1  2  1  0
  2  3  1  0
  2  4  1  0
  4  5  1  0
  5  6  1  0
  6  7  1  6
  7  8  2  0
  7  9  1  0
  6 10  1  0
 10 11  1  0
 11 12  1  0
 12 13  1  1
 12 14  1  0
 14 15  2  0
 15 16  1  0
 17 16  1  6
 17 18  1  0
 18 19  1  6
 18 20  1  0
 20 21  1  0
 21 22  1  1
 21 23  1  0
 23 24  1  6
 23 25  1  0
 25 26  1  0
 25 27  1  0
 25 28  1  0
 28 29  1  6
 29 30  1  0
 30 31  1  0
 31 32  1  6
 14 33  1  0
 33 34  1  1
 34  2  1  0
 33  6  1  0
 31 12  1  0
 31 17  1  0
 28 18  1  0
M  END
$$$$
