
     RDKit          3D

 26 29  0  0  0  0  0  0  0  0999 V2000
  -21.0205   43.2853  -20.9439 C   0  0  0  0  0  0  0  0  0  0  0  0
  -19.7705   42.4855  -21.3895 C   0  0  0  0  0  0  0  0  0  0  0  0
  -19.2596   43.1675  -22.5851 C   0  0  0  0  0  0  0  0  0  0  0  0
  -18.1821   44.1743  -22.2472 C   0  0  0  0  0  0  0  0  0  0  0  0
  -17.1363   43.4453  -21.4390 C   0  0  0  0  0  0  0  0  0  0  0  0
  -15.9597   43.2924  -21.7875 O   0  0  0  0  0  0  0  0  0  0  0  0
  -17.6392   42.9210  -20.1772 C   0  0  0  0  0  0  0  0  0  0  0  0
  -18.8942   42.4781  -20.1966 C   0  0  0  0  0  0  0  0  0  0  0  0
  -19.4605   41.9756  -18.8930 C   0  0  0  0  0  0  0  0  0  0  0  0
  -20.5375   40.9816  -19.1692 C   0  0  0  0  0  0  0  0  0  0  0  0
  -20.1089   40.2400  -20.4161 C   0  0  0  0  0  0  0  0  0  0  0  0
  -20.2490   41.0497  -21.6590 C   0  0  0  0  0  0  0  0  0  0  0  0
  -19.4859   40.3571  -22.7331 C   0  0  0  0  0  0  0  0  0  0  0  0
  -20.0844   40.7561  -23.9588 O   0  0  0  0  0  0  0  0  0  0  0  0
  -19.4534   38.8934  -22.7205 C   0  0  0  0  0  0  0  0  0  0  0  0
  -19.8459   38.1179  -21.5361 C   0  0  0  0  0  0  0  0  0  0  0  0
  -18.6869   37.5710  -20.7875 C   0  0  0  0  0  0  0  0  0  0  0  0
  -17.6954   37.2360  -21.3914 O   0  0  0  0  0  0  0  0  0  0  0  0
  -20.8020   36.9762  -21.7600 C   0  0  0  0  0  0  0  0  0  0  0  0
  -20.3912   35.8760  -22.5559 C   0  0  0  0  0  0  0  0  0  0  0  0
  -20.0864   36.0951  -23.7438 O   0  0  0  0  0  0  0  0  0  0  0  0
  -20.2667   34.4437  -22.1620 C   0  0  0  0  0  0  0  0  0  0  0  0
  -20.1162   33.5943  -23.2611 O   0  0  0  0  0  0  0  0  0  0  0  0
  -22.0544   37.7248  -22.1689 C   0  0  0  0  0  0  0  0  0  0  0  0
  -22.0877   38.7895  -21.0580 C   0  0  0  0  0  0  0  0  0  0  0  0
  -20.7117   38.9028  -20.5452 C   0  0  0  0  0  0  0  0  0  0  0  0
  1  2  1  0
  2  3  1  0
  3  4  1  0
  4  5  1  0
  5  6  2  0
  5  7  1  0
  7  8  2  0
  8  9  1  0
  9 10  1  0
 10 11  1  0
 11 12  1  0
 12 13  1  0
 13 14  1  0
 13 15  1  0
 15 16  1  0
 16 17  1  0
 17 18  2  0
 16 19  1  0
 19 20  1  0
 20 21  2  0
 20 22  1  0
 22 23  1  0
 19 24  1  0
 24 25  1  0
 25 26  1  0
  8  2  1  0
 26 11  1  0
 12  2  1  0
 26 16  1  0
M  END
$$$$
