
     RDKit          3D

 18 18  0  0  0  0  0  0  0  0999 V2000
  -17.4424   48.1787  -20.5829 C   0  0  0  0  0  0  0  0  0  0  0  0
  -17.8955   46.9349  -20.9797 O   0  0  0  0  0  0  0  0  0  0  0  0
  -17.1715   45.7211  -20.5660 C   0  0  0  0  0  0  0  0  0  0  0  0
  -16.0877   45.8807  -19.8364 C   0  0  0  0  0  0  0  0  0  0  0  0
  -15.4207   44.6548  -19.4622 C   0  0  0  0  0  0  0  0  0  0  0  0
  -15.9827   43.5085  -19.8946 C   0  0  0  0  0  0  0  0  0  0  0  0
  -17.1024   43.3025  -20.6450 C   0  0  0  0  0  0  0  0  0  0  0  0
  -17.6421   42.2155  -21.0752 C   0  0  0  0  0  0  0  0  0  0  0  0
  -18.2236   40.9975  -21.5460 C   0  0  0  0  0  0  0  0  0  0  0  0
  -18.7267   39.9221  -21.9533 C   0  0  0  0  0  0  0  0  0  0  0  0
  -20.0256   39.6708  -22.4081 C   0  0  0  0  0  0  0  0  0  0  0  0
  -20.5192   38.5035  -22.8583 C   0  0  0  0  0  0  0  0  0  0  0  0
  -19.6527   37.3958  -22.8709 C   0  0  0  0  0  0  0  0  0  0  0  0
  -18.4134   37.5972  -22.4421 C   0  0  0  0  0  0  0  0  0  0  0  0
  -17.4132   36.4425  -22.4711 C   0  0  0  0  0  0  0  0  0  0  0  0
  -17.8934   38.7566  -21.9931 N   0  0  0  0  0  0  0  0  0  0  0  0
  -17.7587   44.5808  -21.0180 C   0  0  0  0  0  0  0  0  0  0  0  0
  -17.6122   42.4868  -20.7959 Cl  0  0  0  0  0  0  0  0  0  0  0  0
  1  2  1  0
  2  3  1  0
  3  4  2  0
  4  5  1  0
  5  6  2  0
  6  7  1  0
  7  8  1  0
  8  9  3  0
  9 10  1  0
 10 11  2  0
 11 12  1  0
 12 13  2  0
 13 14  1  0
 14 15  1  0
 14 16  2  0
  7 17  2  0
 17  3  1  0
 16 10  1  0
M  END
$$$$
