
     RDKit          3D

 24 26  0  0  0  0  0  0  0  0999 V2000
  -18.3300   47.7551  -19.2338 C   0  0  0  0  0  0  0  0  0  0  0  0
  -17.8532   47.5691  -20.6456 C   0  0  0  0  0  0  0  0  0  0  0  0
  -18.6264   48.5093  -21.5764 C   0  0  0  0  0  0  0  0  0  0  0  0
  -16.4007   48.0312  -20.7052 C   0  0  0  0  0  0  0  0  0  0  0  0
  -17.8876   46.2485  -21.0918 O   0  0  0  0  0  0  0  0  0  0  0  0
  -17.3684   45.1679  -20.3952 C   0  0  0  0  0  0  0  0  0  0  0  0
  -16.5143   45.4140  -19.5068 O   0  0  0  0  0  0  0  0  0  0  0  0
  -17.7970   43.7897  -20.6814 C   0  0  0  0  0  0  0  0  0  0  0  0
  -17.4348   42.7455  -19.8600 C   0  0  0  0  0  0  0  0  0  0  0  0
  -17.8645   41.4604  -20.1720 C   0  0  0  0  0  0  0  0  0  0  0  0
  -18.6426   41.2022  -21.2801 C   0  0  0  0  0  0  0  0  0  0  0  0
  -19.0703   39.8711  -21.5769 N   0  0  0  0  0  0  0  0  0  0  0  0
  -19.8448   39.5334  -22.6006 N   0  0  0  0  0  0  0  0  0  0  0  0
  -20.0797   38.2152  -22.6258 C   0  0  0  0  0  0  0  0  0  0  0  0
  -19.4018   37.7049  -21.5408 C   0  0  0  0  0  0  0  0  0  0  0  0
  -19.3457   36.3330  -21.1389 N   0  0  0  0  0  0  0  0  0  0  0  0
  -20.4038   35.5060  -21.0844 C   0  0  0  0  0  0  0  0  0  0  0  0
  -19.8970   34.2978  -20.6519 C   0  0  0  0  0  0  0  0  0  0  0  0
  -18.5700   34.4292  -20.4614 N   0  0  0  0  0  0  0  0  0  0  0  0
  -18.2678   35.6732  -20.7651 N   0  0  0  0  0  0  0  0  0  0  0  0
  -18.7807   38.7577  -20.9034 C   0  0  0  0  0  0  0  0  0  0  0  0
  -18.0599   38.7104  -19.8659 O   0  0  0  0  0  0  0  0  0  0  0  0
  -18.9806   42.2409  -22.0634 N   0  0  0  0  0  0  0  0  0  0  0  0
  -18.5747   43.5059  -21.7821 C   0  0  0  0  0  0  0  0  0  0  0  0
  1  2  1  0
  2  3  1  0
  2  4  1  0
  2  5  1  0
  5  6  1  0
  6  7  2  0
  6  8  1  0
  8  9  2  0
  9 10  1  0
 10 11  2  0
 11 12  1  0
 12 13  1  0
 13 14  1  0
 14 15  2  0
 15 16  1  0
 16 17  1  0
 17 18  2  0
 18 19  1  0
 19 20  2  0
 15 21  1  0
 21 22  2  0
 11 23  1  0
 23 24  2  0
 24  8  1  0
 21 12  1  0
 20 16  1  0
M  END
$$$$
