
     RDKit          3D

 19 21  0  0  0  0  0  0  0  0999 V2000
  -16.6582   41.4049  -20.3281 O   0  0  0  0  0  0  0  0  0  0  0  0
  -17.3466   42.1622  -21.0335 C   0  0  0  0  0  0  0  0  0  0  0  0
  -18.0392   41.7585  -22.0720 O   0  0  0  0  0  0  0  0  0  0  0  0
  -18.7602   42.5472  -22.8122 C   0  0  0  0  0  0  0  0  0  0  0  0
  -19.4956   42.0210  -23.9423 C   0  0  0  0  0  0  0  0  0  0  0  0
  -20.3333   42.8537  -24.6791 C   0  0  0  0  0  0  0  0  0  0  0  0
  -21.0561   42.4043  -25.7639 C   0  0  0  0  0  0  0  0  0  0  0  0
  -20.9661   41.0854  -26.1574 C   0  0  0  0  0  0  0  0  0  0  0  0
  -20.1400   40.2672  -25.4297 C   0  0  0  0  0  0  0  0  0  0  0  0
  -19.4179   40.7080  -24.3491 C   0  0  0  0  0  0  0  0  0  0  0  0
  -18.2712   39.5465  -23.3490 Br  0  0  0  0  0  0  0  0  0  0  0  0
  -18.8282   43.8501  -22.5355 N   0  0  0  0  0  0  0  0  0  0  0  0
  -18.1394   44.3334  -21.4796 C   0  0  0  0  0  0  0  0  0  0  0  0
  -18.1721   45.6760  -21.1446 C   0  0  0  0  0  0  0  0  0  0  0  0
  -17.4561   46.1342  -20.0594 C   0  0  0  0  0  0  0  0  0  0  0  0
  -16.6900   45.3014  -19.2716 C   0  0  0  0  0  0  0  0  0  0  0  0
  -16.6523   43.9610  -19.5993 C   0  0  0  0  0  0  0  0  0  0  0  0
  -15.6851   42.8553  -18.6199 Cl  0  0  0  0  0  0  0  0  0  0  0  0
  -17.3705   43.5060  -20.6865 C   0  0  0  0  0  0  0  0  0  0  0  0
  1  2  2  0
  2  3  1  0
  3  4  1  0
  4  5  1  0
  5  6  2  0
  6  7  1  0
  7  8  2  0
  8  9  1  0
  9 10  2  0
 10 11  1  0
  4 12  2  0
 12 13  1  0
 13 14  2  0
 14 15  1  0
 15 16  2  0
 16 17  1  0
 17 18  1  0
 17 19  2  0
 19  2  1  0
 10  5  1  0
 19 13  1  0
M  END
$$$$
