
     RDKit          3D

 34 37  0  0  0  0  0  0  0  0999 V2000
  -19.5187   15.3727  -24.4511 C   0  0  0  0  0  0  0  0  0  0  0  0
  -20.3931   16.0081  -23.4315 C   0  0  0  0  0  0  0  0  0  0  0  0
  -21.4648   15.1703  -22.8461 C   0  0  0  0  0  0  0  0  0  0  0  0
  -22.2359   15.9030  -21.7853 N   0  0  0  0  0  0  0  0  0  0  0  0
  -21.6847   15.9275  -20.4757 C   0  0  0  0  0  0  0  0  0  0  0  0
  -22.0718   14.8039  -19.5665 C   0  0  0  0  0  0  0  0  0  0  0  0
  -21.6234   15.0088  -18.1395 C   0  0  0  0  0  0  0  0  0  0  0  0
  -23.4023   16.4966  -22.2358 C   0  0  0  0  0  0  0  0  0  0  0  0
  -23.1600   17.4087  -23.1691 O   0  0  0  0  0  0  0  0  0  0  0  0
  -24.7960   16.3798  -21.9457 C   0  0  0  0  0  0  0  0  0  0  0  0
  -25.1995   15.1749  -21.4721 C   0  0  0  0  0  0  0  0  0  0  0  0
  -26.4902   14.6502  -21.0722 C   0  0  0  0  0  0  0  0  0  0  0  0
  -26.4265   13.5703  -20.2187 C   0  0  0  0  0  0  0  0  0  0  0  0
  -27.5792   12.9238  -19.8241 C   0  0  0  0  0  0  0  0  0  0  0  0
  -28.7849   13.3848  -20.3036 C   0  0  0  0  0  0  0  0  0  0  0  0
  -30.0427   12.7022  -19.9997 C   0  0  0  0  0  0  0  0  0  0  0  0
  -31.0564   13.3004  -19.2921 C   0  0  0  0  0  0  0  0  0  0  0  0
  -32.2689   12.6289  -19.0825 C   0  0  0  0  0  0  0  0  0  0  0  0
  -32.4899   11.3627  -19.5697 C   0  0  0  0  0  0  0  0  0  0  0  0
  -33.7342   10.6214  -19.4518 C   0  0  0  0  0  0  0  0  0  0  0  0
  -34.6576   10.8741  -20.3262 O   0  0  0  0  0  0  0  0  0  0  0  0
  -34.0708    9.6558  -18.5020 N   0  0  0  0  0  0  0  0  0  0  0  0
  -35.2606    8.8580  -18.3748 C   0  0  0  0  0  0  0  0  0  0  0  0
  -35.4351    8.7267  -16.8719 C   0  0  0  0  0  0  0  0  0  0  0  0
  -34.2003    9.3404  -16.2339 C   0  0  0  0  0  0  0  0  0  0  0  0
  -33.2148    9.2578  -17.3788 C   0  0  0  0  0  0  0  0  0  0  0  0
  -31.4618   10.7583  -20.2823 C   0  0  0  0  0  0  0  0  0  0  0  0
  -30.2674   11.4112  -20.4929 C   0  0  0  0  0  0  0  0  0  0  0  0
  -28.8522   14.4843  -21.1681 C   0  0  0  0  0  0  0  0  0  0  0  0
  -27.7038   15.1225  -21.5568 C   0  0  0  0  0  0  0  0  0  0  0  0
  -27.9060   16.2380  -22.4505 N   0  0  0  0  0  0  0  0  0  0  0  0
  -27.0551   17.1975  -22.6369 C   0  0  0  0  0  0  0  0  0  0  0  0
  -27.5364   18.1493  -23.5778 N   0  0  0  0  0  0  0  0  0  0  0  0
  -25.7213   17.5136  -22.0737 C   0  0  0  0  0  0  0  0  0  0  0  0
  1  2  1  0
  2  3  1  0
  3  4  1  0
  4  5  1  0
  5  6  1  0
  6  7  1  0
  4  8  1  0
  8  9  2  0
  8 10  1  0
 10 11  2  0
 11 12  1  0
 12 13  2  0
 13 14  1  0
 14 15  2  0
 15 16  1  0
 16 17  2  0
 17 18  1  0
 18 19  2  0
 19 20  1  0
 20 21  2  0
 20 22  1  0
 22 23  1  0
 23 24  1  0
 24 25  1  0
 25 26  1  0
 19 27  1  0
 27 28  2  0
 15 29  1  0
 29 30  2  0
 30 31  1  0
 31 32  2  0
 32 33  1  0
 32 34  1  0
 34 10  1  0
 30 12  1  0
 28 16  1  0
 26 22  1  0
M  END
$$$$
