
     RDKit          3D

 21 23  0  0  0  0  0  0  0  0999 V2000
  -14.3289   43.8289  -19.3548 C   0  0  0  0  0  0  0  0  0  0  0  0
  -15.2570   44.6920  -20.0508 N   0  0  0  0  0  0  0  0  0  0  0  0
  -15.0145   45.9724  -20.3794 C   0  0  0  0  0  0  0  0  0  0  0  0
  -13.8368   46.7563  -20.1332 C   0  0  0  0  0  0  0  0  0  0  0  0
  -12.8625   47.3816  -19.9355 N   0  0  0  0  0  0  0  0  0  0  0  0
  -16.1421   46.4745  -21.0399 C   0  0  0  0  0  0  0  0  0  0  0  0
  -17.0260   45.4229  -21.0676 C   0  0  0  0  0  0  0  0  0  0  0  0
  -16.4890   44.3138  -20.4581 C   0  0  0  0  0  0  0  0  0  0  0  0
  -17.0872   42.9959  -20.2714 C   0  0  0  0  0  0  0  0  0  0  0  0
  -17.1160   42.3303  -19.0656 C   0  0  0  0  0  0  0  0  0  0  0  0
  -17.6902   41.0737  -18.9034 C   0  0  0  0  0  0  0  0  0  0  0  0
  -18.2603   40.4557  -19.9928 C   0  0  0  0  0  0  0  0  0  0  0  0
  -18.2502   41.0909  -21.2140 C   0  0  0  0  0  0  0  0  0  0  0  0
  -17.6764   42.3342  -21.3520 C   0  0  0  0  0  0  0  0  0  0  0  0
  -18.8604   40.4363  -22.3943 C   0  0  0  0  0  0  0  0  0  0  0  0
  -19.9614   41.3749  -22.8925 C   0  0  0  0  0  0  0  0  0  0  0  0
  -17.8237   40.3702  -23.5241 C   0  0  0  0  0  0  0  0  0  0  0  0
  -19.4045   39.1886  -22.1254 O   0  0  0  0  0  0  0  0  0  0  0  0
  -19.4311   38.5315  -20.9281 C   0  0  0  0  0  0  0  0  0  0  0  0
  -20.0978   37.0590  -20.7120 S   0  0  0  0  0  0  0  0  0  0  0  0
  -18.8391   39.1733  -19.7971 N   0  0  0  0  0  0  0  0  0  0  0  0
  1  2  1  0
  2  3  1  0
  3  4  1  0
  4  5  3  0
  3  6  2  0
  6  7  1  0
  7  8  2  0
  8  9  1  0
  9 10  2  0
 10 11  1  0
 11 12  2  0
 12 13  1  0
 13 14  2  0
 13 15  1  0
 15 16  1  0
 15 17  1  0
 15 18  1  0
 18 19  1  0
 19 20  2  0
 19 21  1  0
  8  2  1  0
 14  9  1  0
 21 12  1  0
M  END
$$$$
