
     RDKit          3D

 25 26  0  0  0  0  0  0  0  0999 V2000
  -23.9934   31.4743  -27.1514 C   0  0  0  0  0  0  0  0  0  0  0  0
  -22.5266   31.5892  -27.5470 C   0  0  0  0  0  0  0  0  0  0  0  0
  -22.0509   30.2601  -27.9905 C   0  0  0  0  0  0  0  0  0  0  0  0
  -21.7211   32.2752  -26.6524 N   0  0  0  0  0  0  0  0  0  0  0  0
  -22.0400   33.5158  -26.1129 C   0  0  0  0  0  0  0  0  0  0  0  0
  -22.2371   34.7340  -26.9014 C   0  0  0  0  0  0  0  0  0  0  0  0
  -22.5721   36.0133  -26.2461 C   0  0  0  0  0  0  0  0  0  0  0  0
  -22.3386   36.1809  -24.8187 C   0  0  0  0  0  0  0  0  0  0  0  0
  -21.9758   35.0415  -24.0076 N   0  0  0  0  0  0  0  0  0  0  0  0
  -22.4322   37.2603  -24.2404 O   0  0  0  0  0  0  0  0  0  0  0  0
  -22.0312   37.2153  -26.9543 C   0  0  0  0  0  0  0  0  0  0  0  0
  -21.2161   38.1497  -26.3819 C   0  0  0  0  0  0  0  0  0  0  0  0
  -20.7721   39.2348  -27.1361 C   0  0  0  0  0  0  0  0  0  0  0  0
  -21.1381   39.3907  -28.4568 C   0  0  0  0  0  0  0  0  0  0  0  0
  -21.9515   38.4585  -29.0274 C   0  0  0  0  0  0  0  0  0  0  0  0
  -22.3844   37.3891  -28.2712 C   0  0  0  0  0  0  0  0  0  0  0  0
  -24.0712   36.1555  -26.4667 C   0  0  0  0  0  0  0  0  0  0  0  0
  -24.8163   35.0162  -26.5502 C   0  0  0  0  0  0  0  0  0  0  0  0
  -26.1844   35.0939  -26.7438 C   0  0  0  0  0  0  0  0  0  0  0  0
  -26.7681   36.3234  -26.8488 C   0  0  0  0  0  0  0  0  0  0  0  0
  -25.9950   37.4607  -26.7615 C   0  0  0  0  0  0  0  0  0  0  0  0
  -24.6452   37.3416  -26.5696 N   0  0  0  0  0  0  0  0  0  0  0  0
  -20.2937   32.0748  -26.8182 C   0  0  0  0  0  0  0  0  0  0  0  0
  -19.5000   33.1305  -26.1146 C   0  0  0  0  0  0  0  0  0  0  0  0
  -19.8608   30.6741  -26.4614 C   0  0  0  0  0  0  0  0  0  0  0  0
  1  2  1  0
  2  3  1  0
  2  4  1  0
  4  5  1  0
  5  6  1  0
  6  7  1  0
  7  8  1  0
  8  9  1  0
  8 10  2  0
  7 11  1  0
 11 12  2  0
 12 13  1  0
 13 14  2  0
 14 15  1  0
 15 16  2  0
  7 17  1  0
 17 18  2  0
 18 19  1  0
 19 20  2  0
 20 21  1  0
 21 22  2  0
  4 23  1  0
 23 24  1  0
 23 25  1  0
 16 11  1  0
 22 17  1  0
M  END
$$$$
