
     RDKit          3D

 12 12  0  0  0  0  0  0  0  0999 V2000
  -17.8608   15.7099  -33.5075 C   0  0  0  0  0  0  0  0  0  0  0  0
  -16.8078   16.2739  -32.7540 O   0  0  0  0  0  0  0  0  0  0  0  0
  -16.2943   15.5878  -31.6854 C   0  0  0  0  0  0  0  0  0  0  0  0
  -14.9675   15.2147  -31.6554 C   0  0  0  0  0  0  0  0  0  0  0  0
  -14.5062   14.5215  -30.5456 C   0  0  0  0  0  0  0  0  0  0  0  0
  -15.3109   14.1947  -29.4846 C   0  0  0  0  0  0  0  0  0  0  0  0
  -14.6453   13.2401  -27.9723 Br  0  0  0  0  0  0  0  0  0  0  0  0
  -16.6326   14.5763  -29.5340 C   0  0  0  0  0  0  0  0  0  0  0  0
  -17.5277   14.2457  -28.4180 C   0  0  0  0  0  0  0  0  0  0  0  0
  -17.0141   13.9828  -27.3045 O   0  0  0  0  0  0  0  0  0  0  0  0
  -17.1202   15.2666  -30.6244 C   0  0  0  0  0  0  0  0  0  0  0  0
  -18.4685   15.6589  -30.6805 O   0  0  0  0  0  0  0  0  0  0  0  0
  1  2  1  0
  2  3  1  0
  3  4  2  0
  4  5  1  0
  5  6  2  0
  6  7  1  0
  6  8  1  0
  8  9  1  0
  9 10  2  0
  8 11  2  0
 11 12  1  0
 11  3  1  0
M  END
$$$$
