
     RDKit          3D

 13 14  0  0  0  0  0  0  0  0999 V2000
  -22.1385   24.0954  -38.1375 O   0  0  0  0  0  0  0  0  0  0  0  0
  -23.4051   24.1307  -37.5778 C   0  0  0  0  0  0  0  0  0  0  0  0
  -24.3283   23.1916  -37.9648 C   0  0  0  0  0  0  0  0  0  0  0  0
  -23.8668   21.6907  -39.3946 I   0  0  0  0  0  0  0  0  0  0  0  0
  -25.5736   23.2600  -37.3867 C   0  0  0  0  0  0  0  0  0  0  0  0
  -25.8902   24.2264  -36.4580 C   0  0  0  0  0  0  0  0  0  0  0  0
  -27.4802   24.3002  -35.7310 Cl  0  0  0  0  0  0  0  0  0  0  0  0
  -24.9192   25.1666  -36.0901 C   0  0  0  0  0  0  0  0  0  0  0  0
  -25.1658   26.1560  -35.1717 C   0  0  0  0  0  0  0  0  0  0  0  0
  -24.1759   27.0635  -34.8387 C   0  0  0  0  0  0  0  0  0  0  0  0
  -22.9229   27.0066  -35.4105 C   0  0  0  0  0  0  0  0  0  0  0  0
  -22.7059   26.0307  -36.3054 N   0  0  0  0  0  0  0  0  0  0  0  0
  -23.6602   25.1253  -36.6515 C   0  0  0  0  0  0  0  0  0  0  0  0
  1  2  1  0
  2  3  2  0
  3  4  1  0
  3  5  1  0
  5  6  2  0
  6  7  1  0
  6  8  1  0
  8  9  2  0
  9 10  1  0
 10 11  2  0
 11 12  1  0
 12 13  2  0
 13  2  1  0
 13  8  1  0
M  END
$$$$
