
     RDKit          3D

 27 29  0  0  0  0  0  0  0  0999 V2000
  -32.4808   11.1318  -21.5207 O   0  0  0  0  0  0  0  0  0  0  0  0
  -33.2073   10.7321  -20.5782 C   0  0  0  0  0  0  0  0  0  0  0  0
  -34.0392    9.6588  -20.8706 O   0  0  0  0  0  0  0  0  0  0  0  0
  -33.1858   11.3433  -19.2705 C   0  0  0  0  0  0  0  0  0  0  0  0
  -33.9874   10.7792  -18.2815 C   0  0  0  0  0  0  0  0  0  0  0  0
  -34.0017   11.3231  -17.0193 C   0  0  0  0  0  0  0  0  0  0  0  0
  -33.2115   12.4333  -16.7499 C   0  0  0  0  0  0  0  0  0  0  0  0
  -32.4326   12.9718  -17.7309 C   0  0  0  0  0  0  0  0  0  0  0  0
  -32.3978   12.4411  -19.0225 C   0  0  0  0  0  0  0  0  0  0  0  0
  -31.5544   13.0801  -20.0356 C   0  0  0  0  0  0  0  0  0  0  0  0
  -31.9805   13.4843  -21.1167 O   0  0  0  0  0  0  0  0  0  0  0  0
  -30.1756   13.2434  -19.7333 N   0  0  0  0  0  0  0  0  0  0  0  0
  -29.2680   13.9262  -20.5505 C   0  0  0  0  0  0  0  0  0  0  0  0
  -28.7874   13.4031  -21.7069 C   0  0  0  0  0  0  0  0  0  0  0  0
  -27.8803   14.1352  -22.4642 C   0  0  0  0  0  0  0  0  0  0  0  0
  -27.4488   15.3669  -22.0894 C   0  0  0  0  0  0  0  0  0  0  0  0
  -26.3470   16.3447  -23.0092 S   0  0  0  0  0  6  0  0  0  0  0  0
  -26.2664   15.8857  -24.4452 O   0  0  0  0  0  0  0  0  0  0  0  0
  -26.9453   17.7515  -23.1048 O   0  0  0  0  0  0  0  0  0  0  0  0
  -24.8186   16.4121  -22.2698 N   0  0  0  0  0  0  0  0  0  0  0  0
  -24.0261   15.2153  -22.1709 C   0  0  0  0  0  0  0  0  0  0  0  0
  -23.0841   14.8607  -21.6310 N   0  0  0  0  0  0  0  0  0  0  0  0
  -22.4933   13.6565  -21.6900 C   0  0  0  0  0  0  0  0  0  0  0  0
  -23.1002   12.7565  -22.4934 C   0  0  0  0  0  0  0  0  0  0  0  0
  -24.5211   13.6810  -23.1484 S   0  0  0  0  0  0  0  0  0  0  0  0
  -27.9496   15.8935  -20.8953 C   0  0  0  0  0  0  0  0  0  0  0  0
  -28.8325   15.1881  -20.1563 C   0  0  0  0  0  0  0  0  0  0  0  0
  1  2  2  0
  2  3  1  0
  2  4  1  0
  4  5  2  0
  5  6  1  0
  6  7  2  0
  7  8  1  0
  8  9  2  0
  9 10  1  0
 10 11  2  0
 10 12  1  0
 12 13  1  0
 13 14  2  0
 14 15  1  0
 15 16  2  0
 16 17  1  0
 17 18  2  0
 17 19  2  0
 17 20  1  0
 20 21  1  0
 21 22  2  0
 22 23  1  0
 23 24  2  0
 24 25  1  0
 16 26  1  0
 26 27  2  0
  9  4  1  0
 27 13  1  0
 25 21  1  0
M  END
$$$$
