
     RDKit          3D

 31 34  0  0  0  0  0  0  0  0999 V2000
  -16.2562   20.1030  -30.6348 C   0  0  0  0  0  0  0  0  0  0  0  0
  -17.3219   19.0723  -30.6344 C   0  0  0  0  0  0  0  0  0  0  0  0
  -18.5416   19.3988  -31.1662 C   0  0  0  0  0  0  0  0  0  0  0  0
  -19.5567   18.4483  -31.1818 C   0  0  0  0  0  0  0  0  0  0  0  0
  -19.3151   17.1693  -30.6525 C   0  0  0  0  0  0  0  0  0  0  0  0
  -20.3834   16.1785  -30.6892 C   0  0  0  0  0  0  0  0  0  0  0  0
  -21.1326   15.9352  -31.7541 N   0  0  0  0  0  0  0  0  0  0  0  0
  -22.1213   15.0329  -31.8059 C   0  0  0  0  0  0  0  0  0  0  0  0
  -22.3893   14.2964  -30.6750 C   0  0  0  0  0  0  0  0  0  0  0  0
  -21.6099   14.5440  -29.5575 C   0  0  0  0  0  0  0  0  0  0  0  0
  -20.6430   15.4532  -29.5670 N   0  0  0  0  0  0  0  0  0  0  0  0
  -18.1068   16.8396  -30.1224 C   0  0  0  0  0  0  0  0  0  0  0  0
  -17.8423   15.5485  -29.5759 C   0  0  0  0  0  0  0  0  0  0  0  0
  -18.4412   15.2258  -28.4998 O   0  0  0  0  0  0  0  0  0  0  0  0
  -16.9622   14.5858  -30.1414 N   0  0  0  0  0  0  0  0  0  0  0  0
  -15.9351   14.0490  -29.2985 C   0  0  0  0  0  0  0  0  0  0  0  0
  -15.2169   12.8619  -29.8078 C   0  0  2  0  0  0  0  0  0  0  0  0
  -13.6969   13.1126  -29.6505 C   0  0  0  0  0  0  0  0  0  0  0  0
  -13.1383   12.4979  -28.6327 O   0  0  0  0  0  0  0  0  0  0  0  0
  -12.3655   12.3303  -27.6051 C   0  0  0  0  0  0  0  0  0  0  0  0
  -11.8249   11.0494  -27.3671 C   0  0  0  0  0  0  0  0  0  0  0  0
  -11.0112   10.7764  -26.3215 C   0  0  0  0  0  0  0  0  0  0  0  0
  -10.6792   11.7755  -25.4348 C   0  0  0  0  0  0  0  0  0  0  0  0
   -9.8643   11.5072  -24.3859 F   0  0  0  0  0  0  0  0  0  0  0  0
  -11.2052   13.0186  -25.6690 C   0  0  0  0  0  0  0  0  0  0  0  0
  -12.0071   13.2791  -26.7029 N   0  0  0  0  0  0  0  0  0  0  0  0
  -15.4051   12.5875  -31.2717 C   0  0  0  0  0  0  0  0  0  0  0  0
  -15.7473   13.8466  -32.0412 C   0  0  0  0  0  0  0  0  0  0  0  0
  -17.1429   14.2183  -31.5235 C   0  0  1  0  0  0  0  0  0  0  0  0
  -18.1032   13.0678  -31.6331 C   0  0  0  0  0  0  0  0  0  0  0  0
  -17.1189   17.7990  -30.1203 C   0  0  0  0  0  0  0  0  0  0  0  0
  1  2  1  0
  2  3  2  0
  3  4  1  0
  4  5  2  0
  5  6  1  0
  6  7  2  0
  7  8  1  0
  8  9  2  0
  9 10  1  0
 10 11  2  0
  5 12  1  0
 12 13  1  0
 13 14  2  0
 13 15  1  0
 15 16  1  0
 16 17  1  0
 17 18  1  6
 18 19  1  0
 19 20  1  0
 20 21  2  0
 21 22  1  0
 22 23  2  0
 23 24  1  0
 23 25  1  0
 25 26  2  0
 17 27  1  0
 27 28  1  0
 28 29  1  0
 29 30  1  1
 12 31  2  0
 31  2  1  0
 11  6  1  0
 29 15  1  0
 26 20  1  0
M  END
$$$$
