
     RDKit          3D

 32 36  0  0  0  0  0  0  0  0999 V2000
  -27.2607   11.0480  -23.8256 O   0  0  0  0  0  0  0  0  0  0  0  0
  -27.5578   11.7926  -22.8711 C   0  0  0  0  0  0  0  0  0  0  0  0
  -26.7045   12.9200  -22.5263 C   0  0  0  0  0  0  0  0  0  0  0  0
  -26.7294   14.1493  -23.1466 C   0  0  0  0  0  0  0  0  0  0  0  0
  -25.8992   15.1900  -22.7814 C   0  0  0  0  0  0  0  0  0  0  0  0
  -26.0096   16.4892  -23.4814 C   0  0  0  0  0  0  0  0  0  0  0  0
  -26.9939   17.4214  -22.9282 C   0  0  0  0  0  0  0  0  0  0  0  0
  -26.8937   17.7558  -21.6115 N   0  0  0  0  0  0  0  0  0  0  0  0
  -27.7814   18.5618  -21.0408 N   0  0  0  0  0  0  0  0  0  0  0  0
  -28.8169   19.0885  -21.7200 C   0  0  0  0  0  0  0  0  0  0  0  0
  -29.6484   19.8512  -21.1585 O   0  0  0  0  0  0  0  0  0  0  0  0
  -28.9747   18.7928  -23.0491 C   0  0  0  0  0  0  0  0  0  0  0  0
  -30.0128   19.3269  -23.7619 C   0  0  0  0  0  0  0  0  0  0  0  0
  -30.1783   19.0512  -25.1024 C   0  0  0  0  0  0  0  0  0  0  0  0
  -29.2455   18.2158  -25.6734 C   0  0  0  0  0  0  0  0  0  0  0  0
  -28.2011   17.6784  -24.9549 C   0  0  0  0  0  0  0  0  0  0  0  0
  -28.0277   17.9410  -23.6329 C   0  0  0  0  0  0  0  0  0  0  0  0
  -25.0150   15.0030  -21.7654 C   0  0  0  0  0  0  0  0  0  0  0  0
  -24.9520   13.7913  -21.1146 C   0  0  0  0  0  0  0  0  0  0  0  0
  -25.7823   12.7741  -21.4917 C   0  0  0  0  0  0  0  0  0  0  0  0
  -25.7278   11.5878  -20.8621 F   0  0  0  0  0  0  0  0  0  0  0  0
  -28.7384   11.5153  -22.1346 N   0  0  0  0  0  0  0  0  0  0  0  0
  -29.0335   12.3334  -20.9697 C   0  0  0  0  0  0  0  0  0  0  0  0
  -29.4901   11.4887  -19.8062 C   0  0  0  0  0  0  0  0  0  0  0  0
  -30.4189   10.4213  -20.2554 N   0  0  0  0  0  0  0  0  0  0  0  0
  -31.6615   10.3542  -19.6467 C   0  0  0  0  0  0  0  0  0  0  0  0
  -31.8097   11.2478  -18.6725 O   0  0  0  0  0  0  0  0  0  0  0  0
  -32.8390    9.5291  -19.8303 C   0  0  0  0  0  0  0  0  0  0  0  0
  -33.5593    8.7269  -18.8480 C   0  0  0  0  0  0  0  0  0  0  0  0
  -34.1421   10.0542  -19.2840 C   0  0  0  0  0  0  0  0  0  0  0  0
  -29.9308    9.5576  -21.2807 C   0  0  0  0  0  0  0  0  0  0  0  0
  -29.6454   10.4495  -22.4977 C   0  0  0  0  0  0  0  0  0  0  0  0
  1  2  2  0
  2  3  1  0
  3  4  2  0
  4  5  1  0
  5  6  1  0
  6  7  1  0
  7  8  2  0
  8  9  1  0
  9 10  1  0
 10 11  2  0
 10 12  1  0
 12 13  2  0
 13 14  1  0
 14 15  2  0
 15 16  1  0
 16 17  2  0
  5 18  2  0
 18 19  1  0
 19 20  2  0
 20 21  1  0
  2 22  1  0
 22 23  1  0
 23 24  1  0
 24 25  1  0
 25 26  1  0
 26 27  2  0
 26 28  1  0
 28 29  1  0
 29 30  1  0
 25 31  1  0
 31 32  1  0
 20  3  1  0
 32 22  1  0
 17  7  1  0
 30 28  1  0
 17 12  1  0
M  END
$$$$
