
     RDKit          3D

 19 20  0  0  0  0  0  0  0  0999 V2000
  -19.7471   45.9983  -22.4141 C   0  0  0  0  0  0  0  0  0  0  0  0
  -19.2385   45.0173  -23.1163 C   0  0  0  0  0  0  0  0  0  0  0  0
  -19.1561   43.6880  -22.5314 C   0  0  0  0  0  0  0  0  0  0  0  0
  -20.0532   43.2618  -21.7603 O   0  0  0  0  0  0  0  0  0  0  0  0
  -18.0711   42.7973  -22.7902 N   0  0  0  0  0  0  0  0  0  0  0  0
  -18.1570   41.4174  -22.4579 C   0  0  0  0  0  0  0  0  0  0  0  0
  -17.7665   40.4869  -23.3972 C   0  0  0  0  0  0  0  0  0  0  0  0
  -17.8157   39.1280  -23.1620 C   0  0  0  0  0  0  0  0  0  0  0  0
  -18.2727   38.6830  -21.9412 C   0  0  0  0  0  0  0  0  0  0  0  0
  -18.3384   36.9704  -21.6366 S   0  0  0  0  0  6  0  0  0  0  0  0
  -18.0476   36.7088  -20.1803 O   0  0  0  0  0  0  0  0  0  0  0  0
  -17.2775   36.3129  -22.4722 O   0  0  0  0  0  0  0  0  0  0  0  0
  -19.8860   36.3781  -22.0805 N   0  0  0  0  0  0  0  0  0  0  0  0
  -19.9069   36.0861  -23.4885 C   0  0  0  0  0  0  0  0  0  0  0  0
  -19.1835   34.7831  -23.6037 C   0  0  0  0  0  0  0  0  0  0  0  0
  -19.3034   34.1528  -22.2571 C   0  0  0  0  0  0  0  0  0  0  0  0
  -20.1069   35.1108  -21.4047 C   0  0  0  0  0  0  0  0  0  0  0  0
  -18.6734   39.5774  -20.9726 C   0  0  0  0  0  0  0  0  0  0  0  0
  -18.6104   40.9463  -21.2445 C   0  0  0  0  0  0  0  0  0  0  0  0
  1  2  2  0
  2  3  1  0
  3  4  2  0
  3  5  1  0
  5  6  1  0
  6  7  2  0
  7  8  1  0
  8  9  2  0
  9 10  1  0
 10 11  2  0
 10 12  2  0
 10 13  1  0
 13 14  1  0
 14 15  1  0
 15 16  1  0
 16 17  1  0
  9 18  1  0
 18 19  2  0
 19  6  1  0
 17 13  1  0
M  END
$$$$
