
     RDKit          3D

 21 22  0  0  0  0  0  0  0  0999 V2000
  -21.1322    3.1324  -33.8988 C   0  0  0  0  0  0  0  0  0  0  0  0
  -20.1709    2.1793  -34.2413 O   0  0  0  0  0  0  0  0  0  0  0  0
  -19.4631    1.4767  -33.2843 C   0  0  0  0  0  0  0  0  0  0  0  0
  -19.7598    1.6838  -31.9928 N   0  0  0  0  0  0  0  0  0  0  0  0
  -19.0726    1.0013  -31.0581 C   0  0  0  0  0  0  0  0  0  0  0  0
  -18.1199    0.1360  -31.3657 N   0  0  0  0  0  0  0  0  0  0  0  0
  -17.7946   -0.0972  -32.7058 C   0  0  0  0  0  0  0  0  0  0  0  0
  -16.8540   -1.1112  -32.8790 N   0  0  0  0  0  0  0  0  0  0  0  0
  -15.3752   -1.4907  -32.1658 S   0  0  0  0  0  6  0  0  0  0  0  0
  -15.6174   -1.9522  -30.7174 O   0  0  0  0  0  0  0  0  0  0  0  0
  -14.7733   -2.7187  -32.9062 O   0  0  0  0  0  0  0  0  0  0  0  0
  -14.1473   -0.2730  -32.1380 C   0  0  0  0  0  0  0  0  0  0  0  0
  -13.3753   -0.0552  -33.2830 C   0  0  0  0  0  0  0  0  0  0  0  0
  -12.4294    0.9468  -33.3464 C   0  0  0  0  0  0  0  0  0  0  0  0
  -12.2146    1.7779  -32.2613 C   0  0  0  0  0  0  0  0  0  0  0  0
  -11.2370    2.8042  -32.3440 N   0  0  0  0  0  0  0  0  0  0  0  0
  -12.9844    1.5472  -31.1446 C   0  0  0  0  0  0  0  0  0  0  0  0
  -13.9273    0.5594  -31.0612 C   0  0  0  0  0  0  0  0  0  0  0  0
  -18.4536    0.5651  -33.6680 C   0  0  0  0  0  0  0  0  0  0  0  0
  -18.2511    0.4490  -35.0141 O   0  0  0  0  0  0  0  0  0  0  0  0
  -18.8322   -0.6297  -35.7563 C   0  0  0  0  0  0  0  0  0  0  0  0
  1  2  1  0
  2  3  1  0
  3  4  2  0
  4  5  1  0
  5  6  2  0
  6  7  1  0
  7  8  1  0
  8  9  1  0
  9 10  2  0
  9 11  2  0
  9 12  1  0
 12 13  2  0
 13 14  1  0
 14 15  2  0
 15 16  1  0
 15 17  1  0
 17 18  2  0
  7 19  2  0
 19 20  1  0
 20 21  1  0
 19  3  1  0
 18 12  1  0
M  END
$$$$
