
     RDKit          3D

 18 18  0  0  0  0  0  0  0  0999 V2000
  -23.2962   12.0760  -19.5058 C   0  0  0  0  0  0  0  0  0  0  0  0
  -24.5723   12.5141  -20.1546 C   0  0  0  0  0  0  0  0  0  0  0  0
  -25.5863   11.6229  -20.2958 C   0  0  0  0  0  0  0  0  0  0  0  0
  -26.7591   12.0240  -20.8917 C   0  0  0  0  0  0  0  0  0  0  0  0
  -26.9130   13.3175  -21.3448 C   0  0  0  0  0  0  0  0  0  0  0  0
  -28.2106   13.6684  -21.9760 C   0  0  0  0  0  0  0  0  0  0  0  0
  -25.8812   14.2617  -21.2127 C   0  0  0  0  0  0  0  0  0  0  0  0
  -26.1079   15.4946  -21.6759 O   0  0  0  0  0  0  0  0  0  0  0  0
  -25.9869   16.1479  -22.8653 C   0  0  0  0  0  0  0  0  0  0  0  0
  -27.2106   16.5867  -23.5737 C   0  0  0  0  0  0  0  0  0  0  0  0
  -27.7017   17.9565  -23.2730 C   0  0  0  0  0  0  0  0  0  0  0  0
  -28.7839   18.5130  -24.1126 C   0  0  0  0  0  0  0  0  0  0  0  0
  -29.6844   19.3409  -23.1641 C   0  0  0  0  0  0  0  0  0  0  0  0
  -28.4118   19.4201  -25.2257 C   0  0  0  0  0  0  0  0  0  0  0  0
  -29.6647   17.4128  -24.6263 C   0  0  0  0  0  0  0  0  0  0  0  0
  -30.8099   17.6687  -25.0637 O   0  0  0  0  0  0  0  0  0  0  0  0
  -29.1702   16.1223  -24.5989 O   0  0  0  0  0  0  0  0  0  0  0  0
  -24.7398   13.8131  -20.6148 C   0  0  0  0  0  0  0  0  0  0  0  0
  1  2  1  0
  2  3  2  0
  3  4  1  0
  4  5  2  0
  5  6  1  0
  5  7  1  0
  7  8  1  0
  8  9  1  0
  9 10  1  0
 10 11  1  0
 11 12  1  0
 12 13  1  0
 12 14  1  0
 12 15  1  0
 15 16  2  0
 15 17  1  0
  7 18  2  0
 18  2  1  0
M  END
$$$$
