
     RDKit          3D

 19 20  0  0  0  0  0  0  0  0999 V2000
  -23.7009   24.1520  -35.4246 O   0  0  0  0  0  0  0  0  0  0  0  0
  -23.8979   25.5045  -35.5640 C   0  0  0  0  0  0  0  0  0  0  0  0
  -23.2095   26.4049  -34.7404 C   0  0  0  0  0  0  0  0  0  0  0  0
  -22.0935   25.8193  -33.5276 Cl  0  0  0  0  0  0  0  0  0  0  0  0
  -23.4396   27.7503  -34.9172 C   0  0  0  0  0  0  0  0  0  0  0  0
  -24.3169   28.2234  -35.8699 C   0  0  0  0  0  0  0  0  0  0  0  0
  -24.6037   29.9513  -36.0871 Cl  0  0  0  0  0  0  0  0  0  0  0  0
  -24.9785   27.2953  -36.6652 C   0  0  0  0  0  0  0  0  0  0  0  0
  -24.7802   25.9408  -36.5244 C   0  0  0  0  0  0  0  0  0  0  0  0
  -25.6258   24.7480  -37.5412 S   0  0  0  0  0  0  0  0  0  0  0  0
  -27.2077   24.2953  -36.9025 C   0  0  0  0  0  0  0  0  0  0  0  0
  -28.3641   24.7456  -37.5008 C   0  0  0  0  0  0  0  0  0  0  0  0
  -29.5630   24.3505  -36.9459 C   0  0  0  0  0  0  0  0  0  0  0  0
  -31.0333   24.9292  -37.7150 Cl  0  0  0  0  0  0  0  0  0  0  0  0
  -29.6473   23.5392  -35.8386 C   0  0  0  0  0  0  0  0  0  0  0  0
  -28.5015   23.0923  -35.2448 C   0  0  0  0  0  0  0  0  0  0  0  0
  -28.6088   22.0593  -33.8349 Cl  0  0  0  0  0  0  0  0  0  0  0  0
  -27.2856   23.4812  -35.7915 C   0  0  0  0  0  0  0  0  0  0  0  0
  -26.1490   22.9906  -35.1380 O   0  0  0  0  0  0  0  0  0  0  0  0
  1  2  1  0
  2  3  2  0
  3  4  1  0
  3  5  1  0
  5  6  2  0
  6  7  1  0
  6  8  1  0
  8  9  2  0
  9 10  1  0
 10 11  1  0
 11 12  2  0
 12 13  1  0
 13 14  1  0
 13 15  2  0
 15 16  1  0
 16 17  1  0
 16 18  2  0
 18 19  1  0
  9  2  1  0
 18 11  1  0
M  END
$$$$
