
     RDKit          3D

 31 34  0  0  0  0  0  0  0  0999 V2000
  -18.2395   22.9345  -29.4374 C   0  0  0  0  0  0  0  0  0  0  0  0
  -19.6320   22.4417  -29.5463 C   0  0  0  0  0  0  0  0  0  0  0  0
  -21.0849   23.2273  -28.8784 S   0  0  0  0  0  0  0  0  0  0  0  0
  -22.2208   21.9679  -29.4852 C   0  0  0  0  0  0  0  0  0  0  0  0
  -21.4288   21.0532  -30.1310 C   0  0  0  0  0  0  0  0  0  0  0  0
  -20.1088   21.2881  -30.1756 C   0  0  0  0  0  0  0  0  0  0  0  0
  -19.1169   20.4607  -31.0083 C   0  0  0  0  0  0  0  0  0  0  0  0
  -22.0472   19.8035  -30.6816 C   0  0  0  0  0  0  0  0  0  0  0  0
  -21.3726   18.5544  -30.5399 C   0  0  0  0  0  0  0  0  0  0  0  0
  -20.3463   18.3122  -29.7198 C   0  0  0  0  0  0  0  0  0  0  0  0
  -19.6850   17.1094  -29.6722 C   0  0  0  0  0  0  0  0  0  0  0  0
  -20.1231   16.1030  -30.5284 C   0  0  0  0  0  0  0  0  0  0  0  0
  -19.3046   14.5495  -30.4973 Cl  0  0  0  0  0  0  0  0  0  0  0  0
  -21.1792   16.3208  -31.3835 C   0  0  0  0  0  0  0  0  0  0  0  0
  -21.7979   17.5390  -31.3874 C   0  0  0  0  0  0  0  0  0  0  0  0
  -23.2237   19.7909  -31.2958 N   0  0  0  0  0  0  0  0  0  0  0  0
  -24.1471   20.9066  -31.5588 C   0  0  1  0  0  0  0  0  0  0  0  0
  -25.2808   20.3912  -32.3552 C   0  0  0  0  0  0  0  0  0  0  0  0
  -24.9394   19.9159  -33.6939 C   0  0  0  0  0  0  0  0  0  0  0  0
  -24.7139   20.7167  -34.6274 O   0  0  0  0  0  0  0  0  0  0  0  0
  -24.8455   18.5595  -33.9966 O   0  0  0  0  0  0  0  0  0  0  0  0
  -23.8232   18.0604  -34.8679 C   0  0  0  0  0  0  0  0  0  0  0  0
  -24.1608   18.3786  -36.3232 C   0  0  0  0  0  0  0  0  0  0  0  0
  -23.8021   16.5585  -34.7308 C   0  0  0  0  0  0  0  0  0  0  0  0
  -22.4906   18.7041  -34.5612 C   0  0  0  0  0  0  0  0  0  0  0  0
  -24.5600   21.5907  -30.3060 C   0  0  0  0  0  0  0  0  0  0  0  0
  -25.7264   21.9175  -29.8050 N   0  0  0  0  0  0  0  0  0  0  0  0
  -25.5730   22.5700  -28.6329 N   0  0  0  0  0  0  0  0  0  0  0  0
  -24.2648   22.6632  -28.3754 C   0  0  0  0  0  0  0  0  0  0  0  0
  -23.5640   23.3012  -27.2181 C   0  0  0  0  0  0  0  0  0  0  0  0
  -23.6516   22.0715  -29.3840 N   0  0  0  0  0  0  0  0  0  0  0  0
  1  2  1  0
  2  3  1  0
  3  4  1  0
  4  5  2  0
  5  6  1  0
  6  7  1  0
  5  8  1  0
  8  9  1  0
  9 10  2  0
 10 11  1  0
 11 12  2  0
 12 13  1  0
 12 14  1  0
 14 15  2  0
  8 16  2  0
 16 17  1  0
 17 18  1  1
 18 19  1  0
 19 20  2  0
 19 21  1  0
 21 22  1  0
 22 23  1  0
 22 24  1  0
 22 25  1  0
 17 26  1  0
 26 27  2  0
 27 28  1  0
 28 29  2  0
 29 30  1  0
 29 31  1  0
  6  2  2  0
 15  9  1  0
 31 26  1  0
 31  4  1  0
M  END
$$$$
