
     RDKit          3D

 31 32  0  0  0  0  0  0  0  0999 V2000
  -10.3265   46.8440  -16.6548 C   0  0  0  0  0  0  0  0  0  0  0  0
  -10.6110   45.4725  -16.3889 O   0  0  0  0  0  0  0  0  0  0  0  0
  -11.6103   44.7973  -17.0370 C   0  0  0  0  0  0  0  0  0  0  0  0
  -12.2895   45.6321  -18.0221 C   0  0  0  0  0  0  0  0  0  0  0  0
  -13.3100   44.9828  -18.5742 C   0  0  0  0  0  0  0  0  0  0  0  0
  -13.8334   43.7227  -18.3930 C   0  0  0  0  0  0  0  0  0  0  0  0
  -15.0315   43.6017  -19.2726 C   0  0  0  0  0  0  0  0  0  0  0  0
  -15.6789   44.7361  -19.4849 C   0  0  0  0  0  0  0  0  0  0  0  0
  -16.7357   44.9675  -20.3234 C   0  0  0  0  0  0  0  0  0  0  0  0
  -17.4135   46.0011  -20.8157 N   0  0  0  0  0  0  0  0  0  0  0  0
  -18.2833   45.5648  -21.7244 C   0  0  0  0  0  0  0  0  0  0  0  0
  -18.0945   44.1951  -21.7901 C   0  0  0  0  0  0  0  0  0  0  0  0
  -17.1706   43.7661  -20.9313 N   0  0  0  0  0  0  0  0  0  0  0  0
  -16.5415   42.6303  -20.6775 C   0  0  0  0  0  0  0  0  0  0  0  0
  -17.1672   41.4332  -21.3016 N   0  0  0  0  0  0  0  0  0  0  0  0
  -18.2429   41.0573  -20.4769 C   0  0  0  0  0  0  0  0  0  0  0  0
  -18.4107   41.6215  -19.2771 N   0  0  0  0  0  0  0  0  0  0  0  0
  -19.4718   41.2808  -18.4775 C   0  0  0  0  0  0  0  0  0  0  0  0
  -20.3886   40.3653  -18.9468 C   0  0  0  0  0  0  0  0  0  0  0  0
  -20.2781   39.7459  -20.1383 C   0  0  0  0  0  0  0  0  0  0  0  0
  -19.1606   40.1000  -20.9226 C   0  0  0  0  0  0  0  0  0  0  0  0
  -18.9210   39.4493  -22.2141 C   0  0  0  0  0  0  0  0  0  0  0  0
  -19.3553   37.9388  -22.0085 N   0  0  0  0  0  0  0  0  0  0  0  0
  -18.5391   39.7652  -23.2150 O   0  0  0  0  0  0  0  0  0  0  0  0
  -15.4461   42.4715  -19.8513 N   0  0  0  0  0  0  0  0  0  0  0  0
  -13.1855   43.1019  -17.5368 C   0  0  0  0  0  0  0  0  0  0  0  0
  -12.0185   43.4201  -16.7424 C   0  0  0  0  0  0  0  0  0  0  0  0
  -11.2544   43.0641  -15.9298 O   0  0  0  0  0  0  0  0  0  0  0  0
  -10.4110   42.6569  -15.0256 C   0  0  0  0  0  0  0  0  0  0  0  0
  -14.8606   43.2498  -18.9634 Cl  0  0  0  0  0  0  0  0  0  0  0  0
  -14.8583   43.2511  -18.9621 Cl  0  0  0  0  0  0  0  0  0  0  0  0
  1  2  1  0
  2  3  1  0
  3  4  2  0
  4  5  1  0
  5  6  2  0
  6  7  1  0
  7  8  2  0
  8  9  1  0
  9 10  2  0
 10 11  1  0
 11 12  2  0
 12 13  1  0
 13 14  1  0
 14 15  1  0
 15 16  1  0
 16 17  2  0
 17 18  1  0
 18 19  2  0
 19 20  1  0
 20 21  2  0
 21 22  1  0
 22 23  1  0
 22 24  2  0
 14 25  2  0
  6 26  1  0
 26 27  2  0
 27 28  1  0
 28 29  1  0
 27  3  1  0
 25  7  1  0
 13  9  1  0
 21 16  1  0
M  END
$$$$
