
     RDKit          3D

 26 28  0  0  0  0  0  0  0  0999 V2000
  -25.1232   22.4068  -38.0271 O   0  0  0  0  0  0  0  0  0  0  0  0
  -24.3735   21.5197  -37.5606 C   0  0  0  0  0  0  0  0  0  0  0  0
  -24.7927   20.8716  -36.4002 O   0  0  0  0  0  1  0  0  0  0  0  0
  -23.1088   21.1638  -38.1894 C   0  0  0  0  0  0  0  0  0  0  0  0
  -22.7513   21.8448  -39.3302 C   0  0  0  0  0  0  0  0  0  0  0  0
  -21.5311   21.5100  -39.9397 C   0  0  0  0  0  0  0  0  0  0  0  0
  -20.7180   20.5394  -39.4220 C   0  0  0  0  0  0  0  0  0  0  0  0
  -21.1000   19.8603  -38.2633 C   0  0  0  0  0  0  0  0  0  0  0  0
  -22.3128   20.1771  -37.6386 C   0  0  0  0  0  0  0  0  0  0  0  0
  -20.2914   18.9130  -37.7662 N   0  0  0  0  0  0  0  0  0  0  0  0
  -19.1320   18.5736  -38.3118 C   0  0  0  0  0  0  0  0  0  0  0  0
  -18.2615   17.5704  -37.8182 N   0  0  0  0  0  0  0  0  0  0  0  0
  -17.3689   17.8239  -36.7359 C   0  0  0  0  0  0  0  0  0  0  0  0
  -17.4003   19.0075  -36.0378 C   0  0  0  0  0  0  0  0  0  0  0  0
  -16.5525   19.2839  -34.9793 C   0  0  0  0  0  0  0  0  0  0  0  0
  -15.6348   18.3278  -34.6088 C   0  0  0  0  0  0  0  0  0  0  0  0
  -15.5698   17.1066  -35.2946 C   0  0  0  0  0  0  0  0  0  0  0  0
  -14.3724   15.9302  -34.7747 Cl  0  0  0  0  0  0  0  0  0  0  0  0
  -16.4309   16.8706  -36.3420 C   0  0  0  0  0  0  0  0  0  0  0  0
  -18.7405   19.2373  -39.4586 C   0  0  0  0  0  0  0  0  0  0  0  0
  -17.5356   18.9123  -40.0613 C   0  0  0  0  0  0  0  0  0  0  0  0
  -17.1157   19.5539  -41.2055 C   0  0  0  0  0  0  0  0  0  0  0  0
  -17.9031   20.4997  -41.7199 N   0  0  0  0  0  0  0  0  0  0  0  0
  -19.0838   20.8495  -41.1676 C   0  0  0  0  0  0  0  0  0  0  0  0
  -19.5192   20.2178  -40.0225 C   0  0  0  0  0  0  0  0  0  0  0  0
  -19.1968   19.5300  -38.0840 Na  0  0  0  0  0 15  0  0  0  0  0  0
  1  2  2  0
  2  3  1  0
  2  4  1  0
  4  5  2  0
  5  6  1  0
  6  7  2  0
  7  8  1  0
  8  9  2  0
  8 10  1  0
 10 11  2  0
 11 12  1  0
 12 13  1  0
 13 14  2  0
 14 15  1  0
 15 16  2  0
 16 17  1  0
 17 18  1  0
 17 19  2  0
 11 20  1  0
 20 21  2  0
 21 22  1  0
 22 23  2  0
 23 24  1  0
 24 25  2  0
  9  4  1  0
 19 13  1  0
 25 20  1  0
 25  7  1  0
M  CHG  2   3  -1  26   1
M  END
$$$$
