
     RDKit          3D

 27 30  0  0  0  0  0  0  0  0999 V2000
  -19.2167   -2.7902  -34.6536 F   0  0  0  0  0  0  0  0  0  0  0  0
  -19.1028   -1.7191  -35.4995 C   0  0  0  0  0  0  0  0  0  0  0  0
  -17.9147   -1.8226  -36.1709 F   0  0  0  0  0  0  0  0  0  0  0  0
  -20.1142   -1.6795  -36.4409 F   0  0  0  0  0  0  0  0  0  0  0  0
  -19.1479   -0.4663  -34.6638 C   0  0  0  0  0  0  0  0  0  0  0  0
  -20.1842    0.4333  -34.7513 C   0  0  0  0  0  0  0  0  0  0  0  0
  -20.2119    1.5824  -33.9758 C   0  0  0  0  0  0  0  0  0  0  0  0
  -19.1811    1.8224  -33.1046 C   0  0  0  0  0  0  0  0  0  0  0  0
  -18.1212    0.9481  -32.9839 C   0  0  0  0  0  0  0  0  0  0  0  0
  -17.0640    1.2251  -32.0724 N   0  0  0  0  0  0  0  0  0  0  0  0
  -15.7269    0.8347  -32.4299 C   0  0  0  0  0  0  0  0  0  0  0  0
  -15.5234   -0.2276  -33.2262 N   0  0  0  0  0  0  0  0  0  0  0  0
  -14.2969   -0.5926  -33.5534 C   0  0  0  0  0  0  0  0  0  0  0  0
  -14.0154   -1.7480  -34.4308 C   0  0  0  0  0  0  0  0  0  0  0  0
  -12.7319   -2.0131  -34.8579 C   0  0  0  0  0  0  0  0  0  0  0  0
  -12.4729   -3.0981  -35.6805 C   0  0  0  0  0  0  0  0  0  0  0  0
  -13.4941   -3.9316  -36.0864 C   0  0  0  0  0  0  0  0  0  0  0  0
  -14.7769   -3.6430  -35.6427 C   0  0  0  0  0  0  0  0  0  0  0  0
  -15.0310   -2.5720  -34.8309 C   0  0  0  0  0  0  0  0  0  0  0  0
  -13.2545    0.1144  -33.0776 N   0  0  0  0  0  0  0  0  0  0  0  0
  -13.3878    1.1802  -32.2820 C   0  0  0  0  0  0  0  0  0  0  0  0
  -12.3567    1.8816  -31.8091 N   0  0  0  0  0  0  0  0  0  0  0  0
  -12.5404    2.9617  -30.9994 C   0  0  0  0  0  0  0  0  0  0  0  0
  -13.7971    3.3880  -30.6255 C   0  0  0  0  0  0  0  0  0  0  0  0
  -14.8724    2.6579  -31.1177 C   0  0  0  0  0  0  0  0  0  0  0  0
  -14.6657    1.5657  -31.9374 C   0  0  0  0  0  0  0  0  0  0  0  0
  -18.1267   -0.1868  -33.7719 C   0  0  0  0  0  0  0  0  0  0  0  0
  1  2  1  0
  2  3  1  0
  2  4  1  0
  2  5  1  0
  5  6  2  0
  6  7  1  0
  7  8  2  0
  8  9  1  0
  9 10  1  0
 10 11  1  0
 11 12  2  0
 12 13  1  0
 13 14  1  0
 14 15  2  0
 15 16  1  0
 16 17  2  0
 17 18  1  0
 18 19  2  0
 13 20  2  0
 20 21  1  0
 21 22  2  0
 22 23  1  0
 23 24  2  0
 24 25  1  0
 25 26  2  0
  9 27  2  0
 27  5  1  0
 26 11  1  0
 19 14  1  0
 26 21  1  0
M  END
$$$$
