
     RDKit          3D

  8  6  0  0  0  0  0  0  0  0999 V2000
  -19.3598   36.0826  -22.1560 Br  0  0  0  0  0  0  0  0  0  0  0  0
  -18.9579   38.1158  -23.2710 C   0  0  0  0  0  0  0  0  0  0  0  0
  -18.3874   37.5622  -21.9907 C   0  0  0  0  0  0  0  0  0  0  0  0
  -18.0769   38.6580  -20.9945 C   0  0  0  0  0  0  0  0  0  0  0  0
  -19.5196   36.3410  -21.3039 S   0  0  0  0  0  0  0  0  0  0  0  0
  -19.6716   34.8904  -22.3053 C   0  0  0  0  0  0  0  0  0  0  0  0
  -19.0124   34.7824  -23.3973 N   0  0  0  0  0  0  0  0  0  0  0  0
  -20.5280   33.8354  -21.8998 N   0  0  0  0  0  0  0  0  0  0  0  0
  2  3  1  0
  3  4  1  0
  3  5  1  0
  5  6  1  0
  6  7  2  0
  6  8  1  0
M  END
$$$$
