
     RDKit          3D

 10 10  0  0  0  0  0  0  0  0999 V2000
  -22.9010   37.4819  -24.4050 O   0  0  0  0  0  0  0  0  0  0  0  0
  -22.6586   36.6424  -23.5170 C   0  0  0  0  0  0  0  0  0  0  0  0
  -21.6011   35.7267  -23.6126 N   0  0  0  0  0  0  0  0  0  0  0  0
  -20.3240   36.0910  -24.1720 C   0  0  0  0  0  0  0  0  0  0  0  0
  -19.2936   36.4445  -23.2034 C   0  0  0  0  0  0  0  0  0  0  0  0
  -18.5180   35.5068  -22.5787 C   0  0  0  0  0  0  0  0  0  0  0  0
  -17.5787   35.9454  -21.6672 C   0  0  0  0  0  0  0  0  0  0  0  0
  -17.3727   37.2694  -21.3471 C   0  0  0  0  0  0  0  0  0  0  0  0
  -18.1633   38.2066  -21.9873 C   0  0  0  0  0  0  0  0  0  0  0  0
  -19.1124   37.8036  -22.9042 C   0  0  0  0  0  0  0  0  0  0  0  0
  1  2  2  0
  2  3  1  0
  3  4  1  0
  4  5  1  0
  5  6  2  0
  6  7  1  0
  7  8  2  0
  8  9  1  0
  9 10  2  0
 10  5  1  0
M  END
$$$$
