
     RDKit          3D

 29 32  0  0  0  0  0  0  0  0999 V2000
  -21.0357   29.3611  -19.9730 C   0  0  0  0  0  0  0  0  0  0  0  0
  -21.5992   30.5140  -19.3900 O   0  0  0  0  0  0  0  0  0  0  0  0
  -21.1603   31.7574  -19.8500 C   0  0  0  0  0  0  0  0  0  0  0  0
  -19.9034   31.9232  -20.3992 C   0  0  0  0  0  0  0  0  0  0  0  0
  -19.4404   33.1467  -20.8646 C   0  0  0  0  0  0  0  0  0  0  0  0
  -20.2500   34.2597  -20.7871 C   0  0  0  0  0  0  0  0  0  0  0  0
  -19.7957   35.5600  -21.2668 C   0  0  0  0  0  0  0  0  0  0  0  0
  -20.5153   36.7067  -21.2101 N   0  0  0  0  0  0  0  0  0  0  0  0
  -19.8599   37.6918  -21.7068 O   0  0  0  0  0  0  0  0  0  0  0  0
  -18.6853   37.2225  -22.1068 C   0  0  0  0  0  0  0  0  0  0  0  0
  -17.6626   38.0827  -22.7333 C   0  0  0  0  0  0  0  0  0  0  0  0
  -17.4216   39.6462  -21.8483 S   0  0  0  0  0  0  0  0  0  0  0  0
  -18.8542   40.6855  -22.0496 C   0  0  0  0  0  0  0  0  0  0  0  0
  -20.0373   40.2955  -22.6099 N   0  0  0  0  0  0  0  0  0  0  0  0
  -20.8503   41.3221  -22.5869 N   0  0  0  0  0  0  0  0  0  0  0  0
  -20.1975   42.3545  -22.0201 C   0  0  0  0  0  0  0  0  0  0  0  0
  -20.7179   43.7234  -21.7808 C   0  0  0  0  0  0  0  0  0  0  0  0
  -18.9509   41.9749  -21.6790 N   0  0  0  0  0  0  0  0  0  0  0  0
  -17.9257   42.7259  -21.0640 C   0  0  0  0  0  0  0  0  0  0  0  0
  -17.6490   42.6771  -19.7129 C   0  0  0  0  0  0  0  0  0  0  0  0
  -16.6350   43.4309  -19.1571 C   0  0  0  0  0  0  0  0  0  0  0  0
  -15.8505   44.2678  -19.9227 C   0  0  0  0  0  0  0  0  0  0  0  0
  -14.8273   45.0301  -19.3695 O   0  0  0  0  0  0  0  0  0  0  0  0
  -13.9505   45.6950  -20.2421 C   0  0  0  0  0  0  0  0  0  0  0  0
  -16.1358   44.3108  -21.2814 C   0  0  0  0  0  0  0  0  0  0  0  0
  -17.1468   43.5620  -21.8485 C   0  0  0  0  0  0  0  0  0  0  0  0
  -18.6422   35.9036  -21.8361 N   0  0  0  0  0  0  0  0  0  0  0  0
  -21.5034   34.1021  -20.2412 C   0  0  0  0  0  0  0  0  0  0  0  0
  -21.9635   32.8816  -19.7777 C   0  0  0  0  0  0  0  0  0  0  0  0
  1  2  1  0
  2  3  1  0
  3  4  2  0
  4  5  1  0
  5  6  2  0
  6  7  1  0
  7  8  2  0
  8  9  1  0
  9 10  1  0
 10 11  1  0
 11 12  1  0
 12 13  1  0
 13 14  2  0
 14 15  1  0
 15 16  2  0
 16 17  1  0
 16 18  1  0
 18 19  1  0
 19 20  2  0
 20 21  1  0
 21 22  2  0
 22 23  1  0
 23 24  1  0
 22 25  1  0
 25 26  2  0
 10 27  2  0
  6 28  1  0
 28 29  2  0
 29  3  1  0
 27  7  1  0
 18 13  1  0
 26 19  1  0
M  END
$$$$
