
     RDKit          3D

 27 27  0  0  0  0  0  0  0  0999 V2000
  -21.9446   35.6882  -20.3648 C   0  0  0  0  0  0  0  0  0  0  0  0
  -21.5552   36.5294  -21.5576 C   0  0  0  0  0  0  0  0  0  0  0  0
  -20.3212   36.1486  -22.1255 N   0  0  0  0  0  0  0  0  0  0  0  0
  -20.2303   34.9004  -22.7851 C   0  0  0  0  0  0  0  0  0  0  0  0
  -20.3257   33.6761  -21.9549 C   0  0  0  0  0  0  0  0  0  0  0  0
  -19.6152   37.2351  -22.7556 C   0  0  0  0  0  0  0  0  0  0  0  0
  -19.1712   38.1550  -21.7143 C   0  0  0  0  0  0  0  0  0  0  0  0
  -18.7832   38.9117  -20.8555 C   0  0  0  0  0  0  0  0  0  0  0  0
  -18.2986   39.8109  -19.8123 C   0  0  0  0  0  0  0  0  0  0  0  0
  -18.3621   41.1893  -20.2263 O   0  0  0  0  0  0  0  0  0  0  0  0
  -17.7878   41.6023  -21.3990 C   0  0  0  0  0  0  0  0  0  0  0  0
  -17.2010   40.7568  -22.1551 O   0  0  0  0  0  0  0  0  0  0  0  0
  -17.7842   43.0175  -21.9034 C   0  0  0  0  0  0  0  0  0  0  0  0
  -17.6251   43.0700  -23.2936 O   0  0  0  0  0  0  0  0  0  0  0  0
  -19.0203   43.6812  -21.5126 C   0  0  0  0  0  0  0  0  0  0  0  0
  -20.2008   42.9192  -21.5799 C   0  0  0  0  0  0  0  0  0  0  0  0
  -21.3914   43.4948  -21.2336 C   0  0  0  0  0  0  0  0  0  0  0  0
  -21.5328   44.8038  -20.8097 C   0  0  0  0  0  0  0  0  0  0  0  0
  -20.3570   45.5195  -20.7568 C   0  0  0  0  0  0  0  0  0  0  0  0
  -19.1316   44.9866  -21.0949 C   0  0  0  0  0  0  0  0  0  0  0  0
  -16.4921   43.6065  -21.3411 C   0  0  0  0  0  0  0  0  0  0  0  0
  -16.3938   43.6244  -19.8770 C   0  0  0  0  0  0  0  0  0  0  0  0
  -16.2602   44.9342  -19.2011 C   0  0  0  0  0  0  0  0  0  0  0  0
  -15.4596   45.9300  -19.9460 C   0  0  0  0  0  0  0  0  0  0  0  0
  -14.8999   45.4638  -21.2450 C   0  0  0  0  0  0  0  0  0  0  0  0
  -15.9521   44.7565  -22.0890 C   0  0  0  0  0  0  0  0  0  0  0  0
  -18.9420   40.3479  -21.2963 Cl  0  0  0  0  0  0  0  0  0  0  0  0
  1  2  1  0
  2  3  1  0
  3  4  1  0
  4  5  1  0
  3  6  1  0
  6  7  1  0
  7  8  3  0
  8  9  1  0
  9 10  1  0
 10 11  1  0
 11 12  2  0
 11 13  1  0
 13 14  1  0
 13 15  1  0
 15 16  2  0
 16 17  1  0
 17 18  2  0
 18 19  1  0
 19 20  2  0
 13 21  1  0
 21 22  1  0
 22 23  1  0
 23 24  1  0
 24 25  1  0
 25 26  1  0
 20 15  1  0
 26 21  1  0
M  END
$$$$
