
     RDKit          3D

 28 29  0  0  0  0  0  0  0  0999 V2000
  -17.9605   41.8161  -26.4197 C   0  0  0  0  0  0  0  0  0  0  0  0
  -19.1278   41.1966  -25.6376 C   0  0  1  0  0  0  0  0  0  0  0  0
  -18.7155   40.9476  -24.2421 C   0  0  2  0  0  0  0  0  0  0  0  0
  -19.0801   39.6667  -23.6556 N   0  0  0  0  0  0  0  0  0  0  0  0
  -18.3837   39.0550  -22.6074 C   0  0  0  0  0  0  0  0  0  0  0  0
  -17.1001   39.3136  -22.6967 O   0  0  0  0  0  0  0  0  0  0  0  0
  -18.7608   38.2496  -21.5180 C   0  0  0  0  0  0  0  0  0  0  0  0
  -19.0205   38.8785  -20.3762 N   0  0  0  0  0  0  0  0  0  0  0  0
  -18.6424   40.1549  -20.1283 O   0  0  0  0  0  0  0  0  0  0  0  0
  -18.9514   40.8129  -18.9315 C   0  0  0  0  0  0  0  0  0  0  0  0
  -17.6507   40.9745  -18.1673 C   0  0  0  0  0  0  0  0  0  0  0  0
  -19.5683   42.1934  -19.1999 C   0  0  0  0  0  0  0  0  0  0  0  0
  -19.9513   40.0454  -18.1865 C   0  0  0  0  0  0  0  0  0  0  0  0
  -20.6575   39.1311  -18.6902 O   0  0  0  0  0  0  0  0  0  0  0  0
  -20.1584   40.3168  -16.8421 O   0  0  0  0  0  0  0  0  0  0  0  0
  -18.9279   36.7795  -21.4125 C   0  0  0  0  0  0  0  0  0  0  0  0
  -17.9531   35.9076  -21.8464 C   0  0  0  0  0  0  0  0  0  0  0  0
  -18.7236   34.2643  -21.4639 S   0  0  0  0  0  0  0  0  0  0  0  0
  -20.2709   35.0822  -20.7658 C   0  0  0  0  0  0  0  0  0  0  0  0
  -21.3088   34.1617  -20.2736 N   0  0  0  0  0  0  0  0  0  0  0  0
  -20.0031   36.1713  -20.9074 N   0  0  0  0  0  0  0  0  0  0  0  0
  -19.7617   41.9663  -23.9053 C   0  0  0  0  0  0  0  0  0  0  0  0
  -20.1871   42.3762  -22.7759 O   0  0  0  0  0  0  0  0  0  0  0  0
  -20.0430   42.2466  -25.2491 N   0  0  0  0  0  0  0  0  0  0  0  0
  -21.0370   43.3489  -26.1092 S   0  0  0  0  0  6  0  0  0  0  0  0
  -20.3509   44.6682  -26.3525 O   0  0  0  0  0  0  0  0  0  0  0  0
  -22.3230   43.6117  -25.3551 O   0  0  0  0  0  0  0  0  0  0  0  0
  -21.4674   42.6395  -27.5769 O   0  0  0  0  0  0  0  0  0  0  0  0
  2  1  1  6
  2  3  1  0
  3  4  1  1
  4  5  1  0
  5  6  2  0
  5  7  1  0
  7  8  2  0
  8  9  1  0
  9 10  1  0
 10 11  1  0
 10 12  1  0
 10 13  1  0
 13 14  2  0
 13 15  1  0
  7 16  1  0
 16 17  2  0
 17 18  1  0
 18 19  1  0
 19 20  1  0
 19 21  2  0
  3 22  1  0
 22 23  2  0
 22 24  1  0
 24 25  1  0
 25 26  2  0
 25 27  2  0
 25 28  1  0
 24  2  1  0
 21 16  1  0
M  END
$$$$
