
     RDKit          3D

 27 30  0  0  0  0  0  0  0  0999 V2000
  -19.1130   39.7775  -18.2375 C   0  0  0  0  0  0  0  0  0  0  0  0
  -19.4173   40.7360  -19.2543 O   0  0  0  0  0  0  0  0  0  0  0  0
  -18.9802   40.5661  -20.5606 C   0  0  0  0  0  0  0  0  0  0  0  0
  -18.3071   39.5295  -20.7958 O   0  0  0  0  0  0  0  0  0  0  0  0
  -19.2780   41.5416  -21.6414 C   0  0  2  0  0  0  0  0  0  0  0  0
  -18.6728   41.0812  -22.9338 C   0  0  1  0  0  0  0  0  0  0  0  0
  -19.1861   39.8285  -23.2456 O   0  0  0  0  0  0  0  0  0  0  0  0
  -19.1918   42.0347  -24.0184 C   0  0  0  0  0  0  0  0  0  0  0  0
  -18.5889   43.3767  -23.6949 C   0  0  0  0  0  0  0  0  0  0  0  0
  -18.9878   43.9036  -22.3505 C   0  0  2  0  0  0  0  0  0  0  0  0
  -18.2653   45.1891  -22.1210 C   0  0  0  0  0  0  0  0  0  0  0  0
  -16.9496   44.9900  -21.5636 N   0  0  0  0  0  0  0  0  0  0  0  0
  -16.2350   46.2360  -21.4938 C   0  0  0  0  0  0  0  0  0  0  0  0
  -14.8838   46.0848  -20.8818 C   0  0  0  0  0  0  0  0  0  0  0  0
  -14.8914   45.2750  -19.6462 C   0  0  0  0  0  0  0  0  0  0  0  0
  -15.9792   44.4667  -19.3956 C   0  0  0  0  0  0  0  0  0  0  0  0
  -15.7249   43.8551  -18.2261 N   0  0  0  0  0  0  0  0  0  0  0  0
  -14.5320   44.2484  -17.7443 C   0  0  0  0  0  0  0  0  0  0  0  0
  -13.8451   43.9081  -16.5974 C   0  0  0  0  0  0  0  0  0  0  0  0
  -12.6059   44.4952  -16.3709 C   0  0  0  0  0  0  0  0  0  0  0  0
  -12.0528   45.4035  -17.2614 C   0  0  0  0  0  0  0  0  0  0  0  0
  -12.7566   45.7284  -18.4000 C   0  0  0  0  0  0  0  0  0  0  0  0
  -13.9808   45.1468  -18.6213 C   0  0  0  0  0  0  0  0  0  0  0  0
  -17.1343   44.3581  -20.2805 C   0  0  2  0  0  0  0  0  0  0  0  0
  -17.4790   42.8987  -20.6106 C   0  0  0  0  0  0  0  0  0  0  0  0
  -18.8437   42.9155  -21.2366 C   0  0  2  0  0  0  0  0  0  0  0  0
  -16.4605   43.7915  -20.2018 Cl  0  0  0  0  0  0  0  0  0  0  0  0
  1  2  1  0
  2  3  1  0
  3  4  2  0
  5  3  1  1
  5  6  1  0
  6  7  1  6
  6  8  1  0
  8  9  1  0
 10  9  1  6
 10 11  1  0
 11 12  1  0
 12 13  1  0
 13 14  1  0
 14 15  1  0
 15 16  2  0
 16 17  1  0
 17 18  1  0
 18 19  2  0
 19 20  1  0
 20 21  2  0
 21 22  1  0
 22 23  2  0
 16 24  1  0
 24 25  1  6
 26 25  1  6
 26  5  1  0
 26 10  1  0
 24 12  1  0
 23 15  1  0
 23 18  1  0
M  END
$$$$
