
     RDKit          3D

 37 40  0  0  0  0  0  0  0  0999 V2000
  -31.9354   14.8404  -19.5509 C   0  0  0  0  0  0  0  0  0  0  0  0
  -31.3303   13.9654  -20.6594 C   0  0  1  0  0  0  0  0  0  0  0  0
  -30.0878   14.4648  -20.9193 O   0  0  0  0  0  0  0  0  0  0  0  0
  -29.7392   14.4856  -22.2840 C   0  0  1  0  0  0  0  0  0  0  0  0
  -30.7785   14.8931  -23.0612 O   0  0  0  0  0  0  0  0  0  0  0  0
  -30.7050   16.0822  -23.6982 C   0  0  0  0  0  0  0  0  0  0  0  0
  -29.4037   16.1962  -24.4290 C   0  0  0  0  0  0  0  0  0  0  0  0
  -28.3379   16.0799  -23.5325 N   0  0  0  0  0  0  0  0  0  0  0  0
  -27.2968   17.0251  -23.5525 C   0  0  0  0  0  0  0  0  0  0  0  0
  -26.1857   16.5429  -22.6852 C   0  0  0  0  0  0  0  0  0  0  0  0
  -25.1230   15.7918  -23.0862 N   0  0  0  0  0  0  0  0  0  0  0  0
  -24.3409   15.5513  -22.0489 N   0  0  0  0  0  0  0  0  0  0  0  0
  -24.8606   16.1270  -20.9634 C   0  0  0  0  0  0  0  0  0  0  0  0
  -24.3841   16.1078  -19.7881 O   0  0  0  0  0  0  0  0  0  0  0  0
  -25.9927   16.7325  -21.3670 N   0  0  0  0  0  0  0  0  0  0  0  0
  -28.4442   15.1880  -22.4536 C   0  0  1  0  0  0  0  0  0  0  0  0
  -28.0530   15.9261  -21.1988 C   0  0  0  0  0  0  0  0  0  0  0  0
  -26.7889   15.8174  -20.6521 C   0  0  0  0  0  0  0  0  0  0  0  0
  -26.4029   16.4801  -19.5040 C   0  0  0  0  0  0  0  0  0  0  0  0
  -27.3192   17.2908  -18.8683 C   0  0  0  0  0  0  0  0  0  0  0  0
  -26.9200   17.9343  -17.7386 F   0  0  0  0  0  0  0  0  0  0  0  0
  -28.5831   17.4185  -19.3878 C   0  0  0  0  0  0  0  0  0  0  0  0
  -28.9471   16.7462  -20.5376 C   0  0  0  0  0  0  0  0  0  0  0  0
  -31.3884   12.5516  -20.2466 C   0  0  0  0  0  0  0  0  0  0  0  0
  -32.5170   11.7690  -20.2779 C   0  0  0  0  0  0  0  0  0  0  0  0
  -32.5369   10.4467  -19.8862 C   0  0  0  0  0  0  0  0  0  0  0  0
  -33.7885    9.6451  -19.9409 C   0  0  0  0  0  0  0  0  0  0  0  0
  -34.0519    9.2755  -21.2455 F   0  0  0  0  0  0  0  0  0  0  0  0
  -34.8519   10.3113  -19.3678 F   0  0  0  0  0  0  0  0  0  0  0  0
  -33.6237    8.4541  -19.2208 F   0  0  0  0  0  0  0  0  0  0  0  0
  -31.3551    9.8912  -19.4413 C   0  0  0  0  0  0  0  0  0  0  0  0
  -30.1903   10.6356  -19.3900 C   0  0  0  0  0  0  0  0  0  0  0  0
  -28.9286   10.0154  -18.9077 C   0  0  0  0  0  0  0  0  0  0  0  0
  -28.8697    8.6786  -19.2698 F   0  0  0  0  0  0  0  0  0  0  0  0
  -27.8798   10.7044  -19.5294 F   0  0  0  0  0  0  0  0  0  0  0  0
  -28.8367   10.1746  -17.5512 F   0  0  0  0  0  0  0  0  0  0  0  0
  -30.2199   11.9678  -19.7963 C   0  0  0  0  0  0  0  0  0  0  0  0
  2  1  1  1
  2  3  1  0
  4  3  1  1
  4  5  1  0
  5  6  1  0
  6  7  1  0
  7  8  1  0
  8  9  1  0
  9 10  1  0
 10 11  2  0
 11 12  1  0
 12 13  1  0
 13 14  2  0
 13 15  1  0
  8 16  1  0
 16 17  1  1
 17 18  2  0
 18 19  1  0
 19 20  2  0
 20 21  1  0
 20 22  1  0
 22 23  2  0
  2 24  1  0
 24 25  2  0
 25 26  1  0
 26 27  1  0
 27 28  1  0
 27 29  1  0
 27 30  1  0
 26 31  2  0
 31 32  1  0
 32 33  1  0
 33 34  1  0
 33 35  1  0
 33 36  1  0
 32 37  2  0
 16  4  1  0
 23 17  1  0
 37 24  1  0
 15 10  1  0
M  END
$$$$
