
     RDKit          3D

 20 21  0  0  0  0  0  0  0  0999 V2000
  -17.0827   38.0339  -22.9006 C   0  0  0  0  0  0  0  0  0  0  0  0
  -17.4721   39.1274  -22.1119 O   0  0  0  0  0  0  0  0  0  0  0  0
  -18.4841   39.0418  -21.1724 C   0  0  0  0  0  0  0  0  0  0  0  0
  -18.9277   37.7932  -20.8167 C   0  0  0  0  0  0  0  0  0  0  0  0
  -19.9317   37.6476  -19.8874 C   0  0  0  0  0  0  0  0  0  0  0  0
  -20.3703   36.3809  -19.5372 O   0  0  0  0  0  0  0  0  0  0  0  0
  -20.4564   38.7951  -19.3450 C   0  0  0  0  0  0  0  0  0  0  0  0
  -20.0015   40.0713  -19.7099 C   0  0  0  0  0  0  0  0  0  0  0  0
  -20.5813   41.1957  -19.1171 O   0  0  0  0  0  0  0  0  0  0  0  0
  -19.0003   40.2291  -20.6360 C   0  0  0  0  0  0  0  0  0  0  0  0
  -18.4543   41.4857  -21.0868 C   0  0  0  0  0  0  0  0  0  0  0  0
  -19.0740   42.1286  -21.9968 O   0  0  0  0  0  0  0  0  0  0  0  0
  -17.2372   42.1251  -20.6063 C   0  0  0  0  0  0  0  0  0  0  0  0
  -16.7946   43.2475  -21.1340 C   0  0  0  0  0  0  0  0  0  0  0  0
  -15.5874   43.9032  -20.6559 C   0  0  0  0  0  0  0  0  0  0  0  0
  -15.5413   45.1358  -20.0558 C   0  0  0  0  0  0  0  0  0  0  0  0
  -14.3826   45.7481  -19.6051 C   0  0  0  0  0  0  0  0  0  0  0  0
  -13.1974   45.0668  -19.7742 C   0  0  0  0  0  0  0  0  0  0  0  0
  -13.1989   43.8173  -20.3765 C   0  0  0  0  0  0  0  0  0  0  0  0
  -14.3531   43.2326  -20.8132 C   0  0  0  0  0  0  0  0  0  0  0  0
  1  2  1  0
  2  3  1  0
  3  4  2  0
  4  5  1  0
  5  6  1  0
  5  7  2  0
  7  8  1  0
  8  9  1  0
  8 10  2  0
 10 11  1  0
 11 12  2  0
 11 13  1  0
 13 14  2  0
 14 15  1  0
 15 16  2  0
 16 17  1  0
 17 18  2  0
 18 19  1  0
 19 20  2  0
 10  3  1  0
 20 15  1  0
M  END
$$$$
