
     RDKit          3D

 39 43  0  0  0  0  0  0  0  0999 V2000
  -14.7037   18.0859  -36.1572 C   0  0  0  0  0  0  0  0  0  0  0  0
  -15.1851   16.6753  -36.4159 C   0  0  0  0  0  0  0  0  0  0  0  0
  -15.8238   16.5681  -37.7857 C   0  0  2  0  0  0  0  0  0  0  0  0
  -16.3842   15.1806  -38.0241 C   0  0  0  0  0  0  0  0  0  0  0  0
  -14.8608   16.8981  -38.8346 N   0  0  0  0  0  0  0  0  0  0  0  0
  -13.6576   16.3736  -39.0558 C   0  0  0  0  0  0  0  0  0  0  0  0
  -13.0482   16.9601  -40.1704 C   0  0  0  0  0  0  0  0  0  0  0  0
  -11.7044   16.5921  -40.6905 C   0  0  0  0  0  0  0  0  0  0  0  0
  -13.9390   17.8900  -40.6429 C   0  0  0  0  0  0  0  0  0  0  0  0
  -13.8683   18.7358  -41.6916 C   0  0  0  0  0  0  0  0  0  0  0  0
  -12.7788   18.9161  -42.6300 C   0  0  0  0  0  0  0  0  0  0  0  0
  -11.9061   19.7792  -42.3244 O   0  0  0  0  0  0  0  0  0  0  0  0
  -12.5668   18.2241  -43.8361 N   0  0  0  0  0  0  0  0  0  0  0  0
  -13.4143   17.7644  -44.8290 C   0  0  0  0  0  0  0  0  0  0  0  0
  -13.0869   17.3868  -46.1816 C   0  0  0  0  0  0  0  0  0  0  0  0
  -13.6722   16.1477  -46.5743 C   0  0  0  0  0  0  0  0  0  0  0  0
  -14.5213   15.3737  -45.6265 C   0  0  0  0  0  0  0  0  0  0  0  0
  -13.4796   15.6290  -47.8154 C   0  0  0  0  0  0  0  0  0  0  0  0
  -12.7074   16.2881  -48.7397 C   0  0  0  0  0  0  0  0  0  0  0  0
  -12.4829   15.7421  -50.1210 C   0  0  0  0  0  0  0  0  0  0  0  0
  -12.1685   17.4497  -48.3483 N   0  0  0  0  0  0  0  0  0  0  0  0
  -12.3399   17.9921  -47.1239 C   0  0  0  0  0  0  0  0  0  0  0  0
  -11.7854   19.0796  -46.8797 O   0  0  0  0  0  0  0  0  0  0  0  0
  -14.9918   19.5861  -41.9131 C   0  0  0  0  0  0  0  0  0  0  0  0
  -16.0894   19.5595  -41.1177 C   0  0  0  0  0  0  0  0  0  0  0  0
  -17.2284   20.4620  -41.3752 C   0  0  0  0  0  0  0  0  0  0  0  0
  -18.4623   20.2901  -40.8014 C   0  0  0  0  0  0  0  0  0  0  0  0
  -19.4965   21.1873  -41.1021 C   0  0  0  0  0  0  0  0  0  0  0  0
  -19.3269   22.2463  -41.9580 C   0  0  0  0  0  0  0  0  0  0  0  0
  -20.3588   23.1682  -42.2853 N   0  0  0  0  0  0  0  0  0  0  0  0
  -21.4511   23.4202  -41.4132 C   0  0  0  0  0  0  0  0  0  0  0  0
  -22.7321   23.8361  -42.0984 C   0  0  0  0  0  0  0  0  0  0  0  0
  -22.5544   24.6050  -43.2858 N   0  0  0  0  0  0  0  0  0  0  0  0
  -21.2059   25.0960  -43.4562 C   0  0  0  0  0  0  0  0  0  0  0  0
  -20.3063   23.8906  -43.5600 C   0  0  0  0  0  0  0  0  0  0  0  0
  -18.0848   22.3783  -42.5049 N   0  0  0  0  0  0  0  0  0  0  0  0
  -17.0838   21.5395  -42.2359 C   0  0  0  0  0  0  0  0  0  0  0  0
  -16.1121   18.6768  -40.0599 C   0  0  0  0  0  0  0  0  0  0  0  0
  -15.0534   17.8277  -39.7929 C   0  0  0  0  0  0  0  0  0  0  0  0
  1  2  1  0
  2  3  1  0
  3  4  1  6
  3  5  1  0
  5  6  1  0
  6  7  2  0
  7  8  1  0
  7  9  1  0
  9 10  2  0
 10 11  1  0
 11 12  2  0
 11 13  1  0
 13 14  1  0
 14 15  1  0
 15 16  2  0
 16 17  1  0
 16 18  1  0
 18 19  2  0
 19 20  1  0
 19 21  1  0
 21 22  1  0
 22 23  2  0
 10 24  1  0
 24 25  2  0
 25 26  1  0
 26 27  2  0
 27 28  1  0
 28 29  2  0
 29 30  1  0
 30 31  1  0
 31 32  1  0
 32 33  1  0
 33 34  1  0
 34 35  1  0
 29 36  1  0
 36 37  2  0
 25 38  1  0
 38 39  2  0
 39  5  1  0
 39  9  1  0
 22 15  1  0
 37 26  1  0
 35 30  1  0
M  END
$$$$
