
     RDKit          3D

 26 28  0  0  0  0  0  0  0  0999 V2000
  -15.9620   17.3761  -30.0359 C   0  0  0  0  0  0  0  0  0  0  0  0
  -16.3887   16.1452  -30.1963 C   0  0  0  0  0  0  0  0  0  0  0  0
  -17.7981   15.9792  -30.6578 C   0  0  0  0  0  0  0  0  0  0  0  0
  -18.7344   16.9766  -30.5092 C   0  0  0  0  0  0  0  0  0  0  0  0
  -20.0747   16.8012  -30.8655 C   0  0  0  0  0  0  0  0  0  0  0  0
  -20.5205   15.6128  -31.3856 C   0  0  0  0  0  0  0  0  0  0  0  0
  -21.9194   15.4388  -31.7556 C   0  0  0  0  0  0  0  0  0  0  0  0
  -22.6714   16.4350  -31.9077 O   0  0  0  0  0  0  0  0  0  0  0  0
  -22.4735   14.1834  -31.9531 O   0  0  0  0  0  0  0  0  0  0  0  0
  -19.5947   14.6133  -31.5368 C   0  0  0  0  0  0  0  0  0  0  0  0
  -18.2482   14.7880  -31.1782 C   0  0  0  0  0  0  0  0  0  0  0  0
  -15.5514   15.0248  -29.8812 C   0  0  0  0  0  0  0  0  0  0  0  0
  -15.7101   14.5054  -28.5845 C   0  0  0  0  0  0  0  0  0  0  0  0
  -14.8980   13.4761  -28.1496 C   0  0  0  0  0  0  0  0  0  0  0  0
  -13.9304   12.9307  -28.9408 C   0  0  0  0  0  0  0  0  0  0  0  0
  -13.7882   13.4450  -30.1969 C   0  0  0  0  0  0  0  0  0  0  0  0
  -14.5857   14.4959  -30.6958 C   0  0  0  0  0  0  0  0  0  0  0  0
  -14.2760   15.0102  -32.0692 C   0  0  0  0  0  0  0  0  0  0  0  0
  -13.0760   11.8391  -28.4568 C   0  0  0  0  0  0  0  0  0  0  0  0
  -12.6584   10.9709  -29.6521 C   0  0  0  0  0  0  0  0  0  0  0  0
  -11.7771   12.4714  -27.9630 C   0  0  0  0  0  0  0  0  0  0  0  0
  -13.6126   11.0201  -27.3433 C   0  0  0  0  0  0  0  0  0  0  0  0
  -14.8874   11.4626  -26.7291 C   0  0  0  0  0  0  0  0  0  0  0  0
  -15.0978   12.9571  -26.7844 C   0  0  0  0  0  0  0  0  0  0  0  0
  -16.5619   13.2011  -26.4016 C   0  0  0  0  0  0  0  0  0  0  0  0
  -14.2458   13.7288  -25.8345 C   0  0  0  0  0  0  0  0  0  0  0  0
  1  2  2  0
  2  3  1  0
  3  4  2  0
  4  5  1  0
  5  6  2  0
  6  7  1  0
  7  8  2  0
  7  9  1  0
  6 10  1  0
 10 11  2  0
  2 12  1  0
 12 13  2  0
 13 14  1  0
 14 15  2  0
 15 16  1  0
 16 17  2  0
 17 18  1  0
 15 19  1  0
 19 20  1  0
 19 21  1  0
 19 22  1  0
 22 23  1  0
 23 24  1  0
 24 25  1  0
 24 26  1  0
 11  3  1  0
 17 12  1  0
 24 14  1  0
M  END
$$$$
