
     RDKit          3D

 27 29  0  0  0  0  0  0  0  0999 V2000
  -36.2444    9.2436  -16.8451 C   0  0  0  0  0  0  0  0  0  0  0  0
  -35.1757    9.8755  -17.6507 C   0  0  0  0  0  0  0  0  0  0  0  0
  -33.8783   10.1127  -17.2529 C   0  0  0  0  0  0  0  0  0  0  0  0
  -33.2241   10.7220  -18.3236 C   0  0  0  0  0  0  0  0  0  0  0  0
  -31.8148   11.1789  -18.4087 C   0  0  0  0  0  0  0  0  0  0  0  0
  -31.5396   11.8698  -19.7351 C   0  0  0  0  0  0  0  0  0  0  0  0
  -30.0806   12.2678  -19.7475 C   0  0  0  0  0  0  0  0  0  0  0  0
  -29.7235   12.9241  -20.9463 O   0  0  0  0  0  0  0  0  0  0  0  0
  -28.4449   13.4610  -21.0119 C   0  0  0  0  0  0  0  0  0  0  0  0
  -28.2557   14.8173  -20.8772 C   0  0  0  0  0  0  0  0  0  0  0  0
  -29.4328   15.7192  -20.6589 C   0  0  0  0  0  0  0  0  0  0  0  0
  -26.9784   15.3217  -20.9463 C   0  0  0  0  0  0  0  0  0  0  0  0
  -25.8812   14.5096  -21.1465 C   0  0  0  0  0  0  0  0  0  0  0  0
  -24.5215   15.0548  -21.2191 C   0  0  0  0  0  0  0  0  0  0  0  0
  -24.0978   16.2206  -20.6862 N   0  0  0  0  0  0  0  0  0  0  0  0
  -22.8290   16.3667  -20.9563 O   0  0  0  0  0  0  0  0  0  0  0  0
  -22.3767   15.3566  -21.6452 C   0  0  0  0  0  0  0  0  0  0  0  0
  -20.9770   15.1725  -22.1359 C   0  0  0  0  0  0  0  0  0  0  0  0
  -20.0694   15.2810  -21.1020 F   0  0  0  0  0  0  0  0  0  0  0  0
  -20.8541   13.9390  -22.7460 F   0  0  0  0  0  0  0  0  0  0  0  0
  -20.6403   16.1394  -23.0736 F   0  0  0  0  0  0  0  0  0  0  0  0
  -23.4344   14.5281  -21.8144 N   0  0  0  0  0  0  0  0  0  0  0  0
  -26.1128   13.1429  -21.2782 C   0  0  0  0  0  0  0  0  0  0  0  0
  -27.3820   12.6100  -21.2131 C   0  0  0  0  0  0  0  0  0  0  0  0
  -27.6254   11.1371  -21.3555 C   0  0  0  0  0  0  0  0  0  0  0  0
  -34.1213   10.8248  -19.2911 O   0  0  0  0  0  0  0  0  0  0  0  0
  -35.2664   10.3319  -18.9060 N   0  0  0  0  0  0  0  0  0  0  0  0
  1  2  1  0
  2  3  1  0
  3  4  2  0
  4  5  1  0
  5  6  1  0
  6  7  1  0
  7  8  1  0
  8  9  1  0
  9 10  2  0
 10 11  1  0
 10 12  1  0
 12 13  2  0
 13 14  1  0
 14 15  2  0
 15 16  1  0
 16 17  1  0
 17 18  1  0
 18 19  1  0
 18 20  1  0
 18 21  1  0
 17 22  2  0
 13 23  1  0
 23 24  2  0
 24 25  1  0
  4 26  1  0
 26 27  1  0
 27  2  2  0
 24  9  1  0
 22 14  1  0
M  END
$$$$
