
     RDKit          3D

 40 44  0  0  0  0  0  0  0  0999 V2000
  -24.3345   13.7194  -21.0453 O   0  0  0  0  0  0  0  0  0  0  0  0
  -24.4427   14.8826  -21.5904 C   0  0  0  0  0  0  0  0  0  0  0  0
  -25.7473   15.4187  -21.8944 C   0  0  0  0  0  0  0  0  0  0  0  0
  -26.9614   15.0209  -21.5536 C   0  0  0  0  0  0  0  0  0  0  0  0
  -28.0889   15.8202  -22.0023 C   0  0  0  0  0  0  0  0  0  0  0  0
  -28.0152   16.9940  -22.7315 C   0  0  0  0  0  0  0  0  0  0  0  0
  -29.2785   17.3927  -22.9572 N   0  0  0  0  0  0  0  0  0  0  0  0
  -29.5895   18.5757  -23.6910 C   0  0  0  0  0  0  0  0  0  0  0  0
  -28.8445   18.8873  -24.8007 C   0  0  0  0  0  0  0  0  0  0  0  0
  -29.1067   20.0304  -25.5550 C   0  0  0  0  0  0  0  0  0  0  0  0
  -30.1297   20.8736  -25.1929 C   0  0  0  0  0  0  0  0  0  0  0  0
  -30.8908   20.5750  -24.0769 C   0  0  0  0  0  0  0  0  0  0  0  0
  -30.6133   19.4267  -23.3350 C   0  0  0  0  0  0  0  0  0  0  0  0
  -30.1295   16.5485  -22.4177 N   0  0  0  0  0  0  0  0  0  0  0  0
  -29.4183   15.5466  -21.8084 C   0  0  0  0  0  0  0  0  0  0  0  0
  -29.9938   14.4077  -21.1088 C   0  0  0  0  0  0  0  0  0  0  0  0
  -31.0533   14.4635  -20.2445 C   0  0  0  0  0  0  0  0  0  0  0  0
  -31.5396   13.3430  -19.6053 C   0  0  0  0  0  0  0  0  0  0  0  0
  -30.9814   12.1148  -19.8078 C   0  0  0  0  0  0  0  0  0  0  0  0
  -31.3819   10.9420  -19.2293 O   0  0  0  0  0  0  0  0  0  0  0  0
  -32.6255   10.3295  -19.3189 C   0  0  0  0  0  0  0  0  0  0  0  0
  -32.5674    9.0325  -18.5680 C   0  0  0  0  0  0  0  0  0  0  0  0
  -32.2505    7.8551  -19.1820 C   0  0  0  0  0  0  0  0  0  0  0  0
  -32.2106    6.6852  -18.4482 C   0  0  0  0  0  0  0  0  0  0  0  0
  -32.4849    6.6593  -17.0887 C   0  0  0  0  0  0  0  0  0  0  0  0
  -32.4277    5.1753  -16.1868 Cl  0  0  0  0  0  0  0  0  0  0  0  0
  -32.8028    7.8517  -16.4826 C   0  0  0  0  0  0  0  0  0  0  0  0
  -32.8426    9.0306  -17.2225 C   0  0  0  0  0  0  0  0  0  0  0  0
  -29.8973   12.0402  -20.6887 C   0  0  0  0  0  0  0  0  0  0  0  0
  -29.4101   13.1661  -21.3296 C   0  0  0  0  0  0  0  0  0  0  0  0
  -25.3850   16.8629  -22.9297 S   0  0  0  0  0  0  0  0  0  0  0  0
  -23.6528   16.9288  -22.5084 C   0  0  0  0  0  0  0  0  0  0  0  0
  -22.6810   18.1890  -22.7764 S   0  0  0  0  0  0  0  0  0  0  0  0
  -23.3548   15.6826  -21.9165 N   0  0  0  0  0  0  0  0  0  0  0  0
  -21.9508   15.2801  -21.6716 C   0  0  0  0  0  0  0  0  0  0  0  0
  -21.7263   13.8499  -22.0844 C   0  0  0  0  0  0  0  0  0  0  0  0
  -20.0745   13.4204  -21.5721 S   0  0  0  0  0  6  0  0  0  0  0  0
  -19.7863   12.0223  -22.0244 O   0  0  0  0  0  0  0  0  0  0  0  0
  -19.8909   13.5871  -20.0962 O   0  0  0  0  0  0  0  0  0  0  0  0
  -19.0120   14.4450  -22.4013 O   0  0  0  0  0  0  0  0  0  0  0  0
  1  2  2  0
  2  3  1  0
  3  4  2  0
  4  5  1  0
  5  6  2  0
  6  7  1  0
  7  8  1  0
  8  9  2  0
  9 10  1  0
 10 11  2  0
 11 12  1  0
 12 13  2  0
  7 14  1  0
 14 15  2  0
 15 16  1  0
 16 17  2  0
 17 18  1  0
 18 19  2  0
 19 20  1  0
 20 21  1  0
 21 22  1  0
 22 23  2  0
 23 24  1  0
 24 25  2  0
 25 26  1  0
 25 27  1  0
 27 28  2  0
 19 29  1  0
 29 30  2  0
  3 31  1  0
 31 32  1  0
 32 33  2  0
 32 34  1  0
 34 35  1  0
 35 36  1  0
 36 37  1  0
 37 38  2  0
 37 39  2  0
 37 40  1  0
 34  2  1  0
 15  5  1  0
 30 16  1  0
 13  8  1  0
 28 22  1  0
M  END
$$$$
