
     RDKit          3D

 19 21  0  0  0  0  0  0  0  0999 V2000
  -11.3827   43.5234  -19.9923 C   0  0  0  0  0  0  0  0  0  0  0  0
  -12.5976   44.3725  -19.9185 C   0  0  0  0  0  0  0  0  0  0  0  0
  -12.4478   45.7117  -19.6182 C   0  0  0  0  0  0  0  0  0  0  0  0
  -13.6010   46.5024  -19.5514 C   0  0  0  0  0  0  0  0  0  0  0  0
  -14.8325   45.9295  -19.7837 C   0  0  0  0  0  0  0  0  0  0  0  0
  -15.0075   44.5979  -20.0846 C   0  0  0  0  0  0  0  0  0  0  0  0
  -16.2933   44.0016  -20.3268 C   0  0  0  0  0  0  0  0  0  0  0  0
  -17.1498   44.6100  -21.2220 C   0  0  0  0  0  0  0  0  0  0  0  0
  -18.3886   44.0587  -21.4723 C   0  0  0  0  0  0  0  0  0  0  0  0
  -18.7754   42.9300  -20.8523 N   0  0  0  0  0  0  0  0  0  0  0  0
  -17.9335   42.3266  -19.9684 C   0  0  0  0  0  0  0  0  0  0  0  0
  -18.0951   41.1808  -19.2173 C   0  0  0  0  0  0  0  0  0  0  0  0
  -19.2397   40.2803  -19.1630 C   0  0  0  0  0  0  0  0  0  0  0  0
  -20.3888   40.5615  -19.9440 N   0  0  0  0  0  0  0  0  0  0  0  0
  -19.2502   39.2509  -18.4429 O   0  0  0  0  0  0  0  0  0  0  0  0
  -16.9192   41.0582  -18.5083 C   0  0  0  0  0  0  0  0  0  0  0  0
  -16.1439   42.1025  -18.8620 N   0  0  0  0  0  0  0  0  0  0  0  0
  -16.7279   42.8796  -19.7369 N   0  0  0  0  0  0  0  0  0  0  0  0
  -13.8441   43.8265  -20.1464 C   0  0  0  0  0  0  0  0  0  0  0  0
  1  2  1  0
  2  3  2  0
  3  4  1  0
  4  5  2  0
  5  6  1  0
  6  7  1  0
  7  8  2  0
  8  9  1  0
  9 10  2  0
 10 11  1  0
 11 12  2  0
 12 13  1  0
 13 14  1  0
 13 15  2  0
 12 16  1  0
 16 17  2  0
 17 18  1  0
  6 19  2  0
 19  2  1  0
 18  7  1  0
 18 11  1  0
M  END
$$$$
