
     RDKit          3D

 42 44  0  0  0  0  0  0  0  0999 V2000
  -19.4301   45.6921  -22.2634 C   0  0  0  0  0  0  0  0  0  0  0  0
  -19.3406   44.2941  -22.0969 O   0  0  0  0  0  0  0  0  0  0  0  0
  -18.3516   43.7890  -21.2693 C   0  0  0  0  0  0  0  0  0  0  0  0
  -17.4832   44.6422  -20.6304 C   0  0  0  0  0  0  0  0  0  0  0  0
  -16.4700   44.1911  -19.7875 C   0  0  0  0  0  0  0  0  0  0  0  0
  -15.5930   45.1358  -19.1577 C   0  0  0  0  0  0  0  0  0  0  0  0
  -15.8608   46.3826  -19.3282 O   0  0  0  0  0  0  0  0  0  0  0  0
  -14.4584   44.8821  -18.3648 N   0  0  0  0  0  0  0  0  0  0  0  0
  -13.6616   45.9710  -17.7867 C   0  0  0  0  0  0  0  0  0  0  0  0
  -13.6496   45.8298  -16.2806 C   0  0  0  0  0  0  0  0  0  0  0  0
  -12.5046   46.6722  -15.7568 C   0  0  0  0  0  0  0  0  0  0  0  0
  -11.2164   46.2192  -16.1869 N   0  0  0  0  0  0  0  0  0  0  0  0
  -10.4207   45.6127  -15.1623 C   0  0  0  0  0  0  0  0  0  0  0  0
  -11.2930   45.3756  -17.3443 C   0  0  0  0  0  0  0  0  0  0  0  0
  -12.2730   45.9092  -18.3654 C   0  0  0  0  0  0  0  0  0  0  0  0
  -16.3995   42.8380  -19.6396 C   0  0  0  0  0  0  0  0  0  0  0  0
  -15.4482   42.3062  -18.8338 F   0  0  0  0  0  0  0  0  0  0  0  0
  -17.2589   41.9421  -20.2684 C   0  0  0  0  0  0  0  0  0  0  0  0
  -18.2457   42.3998  -21.0907 C   0  0  0  0  0  0  0  0  0  0  0  0
  -19.1644   41.5976  -21.7679 N   0  0  0  0  0  0  0  0  0  0  0  0
  -19.2491   40.1994  -21.7467 C   0  0  0  0  0  0  0  0  0  0  0  0
  -18.4010   39.4539  -21.0459 N   0  0  0  0  0  0  0  0  0  0  0  0
  -18.4669   38.1152  -21.0098 C   0  0  0  0  0  0  0  0  0  0  0  0
  -19.4655   37.5013  -21.7380 C   0  0  0  0  0  0  0  0  0  0  0  0
  -20.3733   38.2302  -22.4838 C   0  0  0  0  0  0  0  0  0  0  0  0
  -20.2278   39.5642  -22.4584 N   0  0  0  0  0  0  0  0  0  0  0  0
  -21.4639   37.7961  -23.2963 N   0  0  0  0  0  0  0  0  0  0  0  0
  -22.2396   38.8612  -23.8252 C   0  0  0  0  0  0  0  0  0  0  0  0
  -23.6912   38.8388  -23.4077 C   0  0  0  0  0  0  0  0  0  0  0  0
  -24.2139   39.9951  -24.2748 C   0  0  0  0  0  0  0  0  0  0  0  0
  -23.4155   39.9052  -25.5627 C   0  0  0  0  0  0  0  0  0  0  0  0
  -22.3736   38.8163  -25.3354 C   0  0  0  0  0  0  0  0  0  0  0  0
  -21.7973   36.4277  -23.5905 C   0  0  0  0  0  0  0  0  0  0  0  0
  -21.8181   35.5106  -22.4178 C   0  0  0  0  0  0  0  0  0  0  0  0
  -22.6738   35.9735  -21.4288 F   0  0  0  0  0  0  0  0  0  0  0  0
  -22.3757   34.3042  -22.8576 F   0  0  0  0  0  0  0  0  0  0  0  0
  -20.4785   35.1848  -21.8692 C   0  0  0  0  0  0  0  0  0  0  0  0
  -20.2261   33.9757  -21.5947 O   0  0  0  0  0  0  0  0  0  0  0  0
  -19.4165   36.0887  -21.6077 N   0  0  0  0  0  0  0  0  0  0  0  0
  -18.1364   35.5303  -21.1587 C   0  0  0  0  0  0  0  0  0  0  0  0
  -17.5098   41.9853  -20.3769 Cl  0  0  0  0  0  0  0  0  0  0  0  0
  -17.5145   41.9812  -20.3800 Cl  0  0  0  0  0  0  0  0  0  0  0  0
  1  2  1  0
  2  3  1  0
  3  4  2  0
  4  5  1  0
  5  6  1  0
  6  7  2  0
  6  8  1  0
  8  9  1  0
  9 10  1  0
 10 11  1  0
 11 12  1  0
 12 13  1  0
 12 14  1  0
 14 15  1  0
  5 16  2  0
 16 17  1  0
 16 18  1  0
 18 19  2  0
 19 20  1  0
 20 21  1  0
 21 22  2  0
 22 23  1  0
 23 24  2  0
 24 25  1  0
 25 26  2  0
 25 27  1  0
 27 28  1  0
 28 29  1  0
 29 30  1  0
 30 31  1  0
 31 32  1  0
 27 33  1  0
 33 34  1  0
 34 35  1  0
 34 36  1  0
 34 37  1  0
 37 38  2  0
 37 39  1  0
 39 40  1  0
 19  3  1  0
 26 21  1  0
 32 28  1  0
 15  9  1  0
 39 24  1  0
M  END
$$$$
