
     RDKit          3D

  6  5  0  0  0  0  0  0  0  0999 V2000
  -33.0614   10.6051  -19.5860 C   0  0  0  0  0  0  0  0  0  0  0  0
  -32.8387   11.7796  -20.1522 C   0  0  0  0  0  0  0  0  0  0  0  0
  -31.4344   12.2656  -20.3435 C   0  0  0  0  0  0  0  0  0  0  0  0
  -31.4086   13.4669  -21.1119 N   0  0  0  0  0  0  0  0  0  0  0  0
  -30.4939   13.6554  -21.9747 C   0  0  0  0  0  0  0  0  0  0  0  0
  -29.4482   14.5195  -22.8468 S   0  0  0  0  0  0  0  0  0  0  0  0
  1  2  2  0
  2  3  1  0
  3  4  1  0
  4  5  2  0
  5  6  2  0
M  END
$$$$
