
     RDKit          3D

 24 27  0  0  0  0  0  0  0  0999 V2000
  -16.2947   39.2623  -22.3348 N   0  0  0  0  0  0  0  0  0  0  0  0
  -17.4477   39.4228  -22.2278 C   0  0  0  0  0  0  0  0  0  0  0  0
  -18.8716   39.6234  -22.1165 C   0  0  0  0  0  0  0  0  0  0  0  0
  -19.7825   38.6168  -22.1856 C   0  0  0  0  0  0  0  0  0  0  0  0
  -19.3220   37.2881  -22.3783 N   0  0  0  0  0  0  0  0  0  0  0  0
  -20.0597   36.0767  -22.2008 C   0  0  0  0  0  0  0  0  0  0  0  0
  -18.9897   35.0340  -22.0290 C   0  0  0  0  0  0  0  0  0  0  0  0
  -17.9513   35.4919  -23.0590 C   0  0  0  0  0  0  0  0  0  0  0  0
  -17.9477   37.0034  -22.8087 C   0  0  0  0  0  0  0  0  0  0  0  0
  -21.0955   38.9155  -22.0686 N   0  0  0  0  0  0  0  0  0  0  0  0
  -21.5509   40.1657  -21.8860 C   0  0  0  0  0  0  0  0  0  0  0  0
  -22.9409   40.4196  -21.7698 N   0  0  0  0  0  0  0  0  0  0  0  0
  -20.6553   41.2267  -21.8092 C   0  0  0  0  0  0  0  0  0  0  0  0
  -21.0780   42.5307  -21.6218 C   0  0  0  0  0  0  0  0  0  0  0  0
  -22.4751   42.8090  -21.5024 N   0  0  0  0  0  0  0  0  0  0  0  0
  -20.1474   43.4997  -21.5585 N   0  0  0  0  0  0  0  0  0  0  0  0
  -18.8255   43.2736  -21.6671 C   0  0  0  0  0  0  0  0  0  0  0  0
  -17.8579   44.3100  -21.5974 N   0  0  0  0  0  0  0  0  0  0  0  0
  -18.2242   45.7245  -21.5221 C   0  0  0  0  0  0  0  0  0  0  0  0
  -16.9308   46.4819  -21.4289 C   0  0  0  0  0  0  0  0  0  0  0  0
  -15.8429   45.5190  -21.8533 C   0  0  0  0  0  0  0  0  0  0  0  0
  -16.4372   44.1487  -21.5905 C   0  0  0  0  0  0  0  0  0  0  0  0
  -18.4199   41.9777  -21.8523 C   0  0  0  0  0  0  0  0  0  0  0  0
  -19.3241   40.9273  -21.9274 C   0  0  0  0  0  0  0  0  0  0  0  0
  1  2  3  0
  2  3  1  0
  3  4  2  0
  4  5  1  0
  5  6  1  0
  6  7  1  0
  7  8  1  0
  8  9  1  0
  4 10  1  0
 10 11  2  0
 11 12  1  0
 11 13  1  0
 13 14  2  0
 14 15  1  0
 14 16  1  0
 16 17  2  0
 17 18  1  0
 18 19  1  0
 19 20  1  0
 20 21  1  0
 21 22  1  0
 17 23  1  0
 23 24  2  0
 24  3  1  0
  9  5  1  0
 24 13  1  0
 22 18  1  0
M  END
$$$$
