
     RDKit          3D

 25 26  0  0  0  0  0  0  0  0999 V2000
  -17.4952   37.0505  -23.2558 N   0  0  0  0  0  0  0  0  0  0  0  0
  -18.6312   37.6275  -22.0801 S   0  0  0  0  0  6  0  0  0  0  0  0
  -18.7441   36.6366  -20.9841 O   0  0  0  0  0  0  0  0  0  0  0  0
  -19.9649   37.6902  -22.7725 O   0  0  0  0  0  0  0  0  0  0  0  0
  -18.1410   39.2023  -21.5024 N   0  0  0  0  0  0  0  0  0  0  0  0
  -18.3864   39.1894  -20.0687 C   0  0  0  0  0  0  0  0  0  0  0  0
  -18.0233   40.4925  -19.4217 C   0  0  0  0  0  0  0  0  0  0  0  0
  -18.6573   41.6213  -20.0989 N   0  0  0  0  0  0  0  0  0  0  0  0
  -19.8250   42.1659  -19.5443 C   0  0  0  0  0  0  0  0  0  0  0  0
  -20.8457   41.4001  -19.0583 N   0  0  0  0  0  0  0  0  0  0  0  0
  -21.7639   42.1495  -18.5719 O   0  0  0  0  0  0  0  0  0  0  0  0
  -21.4328   43.3620  -18.6972 N   0  0  0  0  0  0  0  0  0  0  0  0
  -20.2017   43.4511  -19.3136 C   0  0  0  0  0  0  0  0  0  0  0  0
  -19.5265   44.6774  -19.5940 C   0  0  0  0  0  0  0  0  0  0  0  0
  -20.1363   45.8231  -19.4073 N   0  0  0  0  0  0  0  0  0  0  0  0
  -19.4600   47.0317  -19.5338 O   0  0  0  0  0  0  0  0  0  0  0  0
  -18.2297   44.7638  -20.1178 N   0  0  0  0  0  0  0  0  0  0  0  0
  -17.3912   45.9046  -19.9007 C   0  0  0  0  0  0  0  0  0  0  0  0
  -16.1188   46.0032  -20.4135 C   0  0  0  0  0  0  0  0  0  0  0  0
  -15.3500   47.1362  -20.1982 C   0  0  0  0  0  0  0  0  0  0  0  0
  -15.8608   48.1824  -19.4607 C   0  0  0  0  0  0  0  0  0  0  0  0
  -15.1224   49.2905  -19.2417 F   0  0  0  0  0  0  0  0  0  0  0  0
  -17.1444   48.1046  -18.9323 C   0  0  0  0  0  0  0  0  0  0  0  0
  -17.8225   49.5647  -17.9192 Br  0  0  0  0  0  0  0  0  0  0  0  0
  -17.8876   46.9492  -19.1690 C   0  0  0  0  0  0  0  0  0  0  0  0
  1  2  1  0
  2  3  2  0
  2  4  2  0
  2  5  1  0
  5  6  1  0
  6  7  1  0
  7  8  1  0
  8  9  1  0
  9 10  2  0
 10 11  1  0
 11 12  1  0
 12 13  2  0
 13 14  1  0
 14 15  2  0
 15 16  1  0
 14 17  1  0
 17 18  1  0
 18 19  2  0
 19 20  1  0
 20 21  2  0
 21 22  1  0
 21 23  1  0
 23 24  1  0
 23 25  2  0
 13  9  1  0
 25 18  1  0
M  END
$$$$
