
     RDKit          3D

 21 21  0  0  0  0  0  0  0  0999 V2000
  -19.1403   40.3905  -17.9638 N   0  0  0  0  0  0  0  0  0  0  0  0
  -19.0471   40.0446  -19.0693 C   0  0  0  0  0  0  0  0  0  0  0  0
  -18.9380   39.6178  -20.4264 C   0  0  0  0  0  0  0  0  0  0  0  0
  -18.9575   38.2964  -20.7579 C   0  0  0  0  0  0  0  0  0  0  0  0
  -18.8525   37.8872  -22.0626 C   0  0  0  0  0  0  0  0  0  0  0  0
  -18.8720   36.5070  -22.4205 N   0  0  0  0  0  0  0  0  0  0  0  0
  -18.8786   35.4499  -21.5045 C   0  0  0  0  0  0  0  0  0  0  0  0
  -18.8892   35.6958  -20.2841 O   0  0  0  0  0  0  0  0  0  0  0  0
  -18.8730   34.0581  -21.9869 C   0  0  0  0  0  0  0  0  0  0  0  0
  -18.4827   33.7710  -23.1475 O   0  0  0  0  0  0  0  0  0  0  0  0
  -19.3023   33.0263  -21.1628 O   0  0  0  0  0  0  0  0  0  0  0  0
  -18.7253   38.8418  -23.0464 C   0  0  0  0  0  0  0  0  0  0  0  0
  -18.5929   38.2874  -24.7069 Cl  0  0  0  0  0  0  0  0  0  0  0  0
  -18.6976   40.2178  -22.7804 C   0  0  0  0  0  0  0  0  0  0  0  0
  -18.5645   41.1003  -23.8591 N   0  0  0  0  0  0  0  0  0  0  0  0
  -19.3057   42.2572  -24.1341 C   0  0  0  0  0  0  0  0  0  0  0  0
  -20.1533   42.6328  -23.3059 O   0  0  0  0  0  0  0  0  0  0  0  0
  -19.1070   43.0266  -25.3628 C   0  0  0  0  0  0  0  0  0  0  0  0
  -18.4222   42.5192  -26.2734 O   0  0  0  0  0  0  0  0  0  0  0  0
  -19.6514   44.2830  -25.5363 O   0  0  0  0  0  0  0  0  0  0  0  0
  -18.8077   40.5448  -21.4550 C   0  0  0  0  0  0  0  0  0  0  0  0
  1  2  3  0
  2  3  1  0
  3  4  2  0
  4  5  1  0
  5  6  1  0
  6  7  1  0
  7  8  2  0
  7  9  1  0
  9 10  2  0
  9 11  1  0
  5 12  2  0
 12 13  1  0
 12 14  1  0
 14 15  1  0
 15 16  1  0
 16 17  2  0
 16 18  1  0
 18 19  2  0
 18 20  1  0
 14 21  2  0
 21  3  1  0
M  END
$$$$
