
     RDKit          3D

 29 32  0  0  0  0  0  0  0  0999 V2000
  -18.5363   34.5617  -21.3514 O   0  0  0  0  0  0  0  0  0  0  0  0
  -19.6933   34.4373  -20.8857 C   0  0  0  0  0  0  0  0  0  0  0  0
  -19.8993   33.6459  -19.7783 O   0  0  0  0  0  0  0  0  0  0  0  0
  -20.8229   35.1471  -21.5378 C   0  0  0  0  0  0  0  0  0  0  0  0
  -20.3291   36.2864  -22.2871 N   0  0  0  0  0  0  0  0  0  0  0  0
  -20.2716   36.3594  -23.6239 N   0  0  0  0  0  0  0  0  0  0  0  0
  -19.7730   37.5287  -23.9864 N   0  0  0  0  0  0  0  0  0  0  0  0
  -19.4998   38.2321  -22.8727 C   0  0  0  0  0  0  0  0  0  0  0  0
  -18.9285   39.5953  -22.8038 C   0  0  0  0  0  0  0  0  0  0  0  0
  -18.7667   40.3379  -21.6788 C   0  0  0  0  0  0  0  0  0  0  0  0
  -18.2033   41.5448  -22.0358 C   0  0  0  0  0  0  0  0  0  0  0  0
  -17.8603   42.6225  -21.1907 N   0  0  0  0  0  0  0  0  0  0  0  0
  -17.8741   42.4354  -19.7757 C   0  0  0  0  0  0  0  0  0  0  0  0
  -16.9465   43.3161  -19.0140 C   0  0  0  0  0  0  0  0  0  0  0  0
  -16.8869   44.7336  -19.5312 C   0  0  0  0  0  0  0  0  0  0  0  0
  -15.6130   45.0397  -20.0199 O   0  0  0  0  0  0  0  0  0  0  0  0
  -14.4380   45.1381  -19.3073 C   0  0  0  0  0  0  0  0  0  0  0  0
  -13.3367   44.3311  -19.4527 C   0  0  0  0  0  0  0  0  0  0  0  0
  -12.1859   44.4951  -18.6936 C   0  0  0  0  0  0  0  0  0  0  0  0
  -11.1146   43.6960  -18.8478 F   0  0  0  0  0  0  0  0  0  0  0  0
  -12.1441   45.4985  -17.7637 C   0  0  0  0  0  0  0  0  0  0  0  0
  -13.2511   46.3195  -17.6086 C   0  0  0  0  0  0  0  0  0  0  0  0
  -14.3816   46.1453  -18.3661 C   0  0  0  0  0  0  0  0  0  0  0  0
  -15.8721   47.3191  -18.0955 Br  0  0  0  0  0  0  0  0  0  0  0  0
  -17.8621   44.9472  -20.6789 C   0  0  0  0  0  0  0  0  0  0  0  0
  -17.4982   43.9036  -21.7432 C   0  0  0  0  0  0  0  0  0  0  0  0
  -18.0575   41.4537  -23.3789 N   0  0  0  0  0  0  0  0  0  0  0  0
  -18.4854   40.3108  -23.8086 O   0  0  0  0  0  0  0  0  0  0  0  0
  -19.8532   37.4402  -21.8454 N   0  0  0  0  0  0  0  0  0  0  0  0
  1  2  2  0
  2  3  1  0
  2  4  1  0
  4  5  1  0
  5  6  1  0
  6  7  2  0
  7  8  1  0
  8  9  1  0
  9 10  2  0
 10 11  1  0
 11 12  1  0
 12 13  1  0
 13 14  1  0
 14 15  1  0
 15 16  1  0
 16 17  1  0
 17 18  2  0
 18 19  1  0
 19 20  1  0
 19 21  2  0
 21 22  1  0
 22 23  2  0
 23 24  1  0
 15 25  1  0
 25 26  1  0
 11 27  2  0
 27 28  1  0
  8 29  2  0
 29  5  1  0
 28  9  1  0
 26 12  1  0
 23 17  1  0
M  END
$$$$
