
     RDKit          3D

 42 46  0  0  0  0  0  0  0  0999 V2000
  -28.0668   22.0178  -27.8832 C   0  0  0  0  0  0  0  0  0  0  0  0
  -26.9949   21.1426  -27.2860 C   0  0  0  0  0  0  0  0  0  0  0  0
  -25.7077   21.7933  -27.3473 N   0  0  0  0  0  0  0  0  0  0  0  0
  -24.8219   21.2449  -26.3312 C   0  0  0  0  0  0  0  0  0  0  0  0
  -24.4672   19.8221  -26.5931 C   0  0  0  0  0  0  0  0  0  0  0  0
  -24.1172   19.5834  -27.9635 N   0  0  0  0  0  0  0  0  0  0  0  0
  -23.1222   18.5858  -28.2090 C   0  0  0  0  0  0  0  0  0  0  0  0
  -22.6144   17.9221  -27.2458 O   0  0  0  0  0  0  0  0  0  0  0  0
  -22.6357   18.2698  -29.5640 C   0  0  0  0  0  0  0  0  0  0  0  0
  -21.5811   17.2008  -29.5597 C   0  0  0  0  0  0  0  0  0  0  0  0
  -20.2684   17.5227  -29.3118 C   0  0  0  0  0  0  0  0  0  0  0  0
  -19.2842   16.5141  -29.3240 C   0  0  0  0  0  0  0  0  0  0  0  0
  -19.6232   15.2282  -29.5790 C   0  0  0  0  0  0  0  0  0  0  0  0
  -18.6871   14.1907  -29.6591 N   0  0  0  0  0  0  0  0  0  0  0  0
  -17.3889   14.2779  -30.2277 C   0  0  0  0  0  0  0  0  0  0  0  0
  -16.4950   13.3000  -30.2692 N   0  0  0  0  0  0  0  0  0  0  0  0
  -15.2403   13.4347  -30.7635 C   0  0  0  0  0  0  0  0  0  0  0  0
  -14.8958   14.6956  -31.2524 C   0  0  0  0  0  0  0  0  0  0  0  0
  -13.6568   14.8738  -31.7540 F   0  0  0  0  0  0  0  0  0  0  0  0
  -15.7826   15.7373  -31.2310 C   0  0  0  0  0  0  0  0  0  0  0  0
  -15.4557   17.0383  -31.6689 N   0  0  0  0  0  0  0  0  0  0  0  0
  -16.2677   18.1601  -31.5435 C   0  0  0  0  0  0  0  0  0  0  0  0
  -15.8420   19.1640  -30.6941 C   0  0  0  0  0  0  0  0  0  0  0  0
  -16.6237   20.2931  -30.4988 C   0  0  0  0  0  0  0  0  0  0  0  0
  -17.8353   20.4527  -31.1349 C   0  0  0  0  0  0  0  0  0  0  0  0
  -18.6103   21.6416  -30.8971 C   0  0  0  0  0  0  0  0  0  0  0  0
  -19.6366   21.8488  -31.6138 O   0  0  0  0  0  0  0  0  0  0  0  0
  -18.3500   22.6409  -29.9240 N   0  0  0  0  0  0  0  0  0  0  0  0
  -19.0180   23.8919  -29.9159 C   0  0  0  0  0  0  0  0  0  0  0  0
  -20.3951   23.9074  -30.1625 C   0  0  0  0  0  0  0  0  0  0  0  0
  -21.1308   25.0475  -30.1703 C   0  0  0  0  0  0  0  0  0  0  0  0
  -20.4993   26.2447  -29.9252 C   0  0  0  0  0  0  0  0  0  0  0  0
  -19.1295   26.2611  -29.6761 C   0  0  0  0  0  0  0  0  0  0  0  0
  -18.3785   25.0824  -29.6701 C   0  0  0  0  0  0  0  0  0  0  0  0
  -16.6614   25.0956  -29.3648 Cl  0  0  0  0  0  0  0  0  0  0  0  0
  -18.2519   19.4566  -31.9760 C   0  0  0  0  0  0  0  0  0  0  0  0
  -17.4650   18.3092  -32.1786 C   0  0  0  0  0  0  0  0  0  0  0  0
  -17.0153   15.4976  -30.7164 N   0  0  0  0  0  0  0  0  0  0  0  0
  -20.9664   14.9234  -29.8259 C   0  0  0  0  0  0  0  0  0  0  0  0
  -21.9445   15.8819  -29.8206 C   0  0  0  0  0  0  0  0  0  0  0  0
  -24.7587   20.2713  -29.0355 C   0  0  0  0  0  0  0  0  0  0  0  0
  -25.1111   21.6683  -28.6613 C   0  0  0  0  0  0  0  0  0  0  0  0
  1  2  1  0
  2  3  1  0
  3  4  1  0
  4  5  1  0
  5  6  1  0
  6  7  1  0
  7  8  2  0
  7  9  1  0
  9 10  1  0
 10 11  2  0
 11 12  1  0
 12 13  2  0
 13 14  1  0
 14 15  1  0
 15 16  2  0
 16 17  1  0
 17 18  2  0
 18 19  1  0
 18 20  1  0
 20 21  1  0
 21 22  1  0
 22 23  2  0
 23 24  1  0
 24 25  2  0
 25 26  1  0
 26 27  2  0
 26 28  1  0
 28 29  1  0
 29 30  2  0
 30 31  1  0
 31 32  2  0
 32 33  1  0
 33 34  2  0
 34 35  1  0
 25 36  1  0
 36 37  2  0
 20 38  2  0
 13 39  1  0
 39 40  2  0
  6 41  1  0
 41 42  1  0
 42  3  1  0
 40 10  1  0
 38 15  1  0
 37 22  1  0
 34 29  1  0
M  END
$$$$
