
     RDKit          3D

 23 24  0  0  0  0  0  0  0  0999 V2000
  -20.2221   44.3821  -23.7385 O   0  0  0  0  0  0  0  0  0  0  0  0
  -20.8897   43.3587  -23.5521 N   0  0  0  0  0  4  0  0  0  0  0  0
  -22.1960   43.3340  -23.9654 O   0  0  0  0  0  1  0  0  0  0  0  0
  -20.3407   42.2002  -22.9185 C   0  0  0  0  0  0  0  0  0  0  0  0
  -18.9763   41.9245  -23.0153 C   0  0  0  0  0  0  0  0  0  0  0  0
  -18.5093   40.7791  -22.3737 C   0  0  0  0  0  0  0  0  0  0  0  0
  -19.3331   39.9461  -21.6736 C   0  0  0  0  0  0  0  0  0  0  0  0
  -18.8280   38.8296  -21.0581 O   0  0  0  0  0  0  0  0  0  0  0  0
  -18.3470   37.4096  -21.8648 P   0  0  0  0  0  5  0  0  0  0  0  0
  -17.6973   36.4279  -20.8996 O   0  0  0  0  0  0  0  0  0  0  0  0
  -17.1219   37.8503  -22.9713 O   0  0  0  0  0  0  0  0  0  0  0  0
  -19.6207   36.6084  -22.6325 O   0  0  0  0  0  0  0  0  0  0  0  0
  -19.9661   35.2821  -22.3878 C   0  0  0  0  0  0  0  0  0  0  0  0
  -19.4465   34.2315  -23.1156 C   0  0  0  0  0  0  0  0  0  0  0  0
  -19.7875   32.9091  -22.8755 C   0  0  0  0  0  0  0  0  0  0  0  0
  -20.6828   32.6036  -21.8712 C   0  0  0  0  0  0  0  0  0  0  0  0
  -21.0689   31.2726  -21.5796 N   0  0  0  0  0  4  0  0  0  0  0  0
  -21.9732   31.0064  -20.7749 O   0  0  0  0  0  0  0  0  0  0  0  0
  -20.4251   30.2405  -22.2048 O   0  0  0  0  0  1  0  0  0  0  0  0
  -21.2170   33.6386  -21.1283 C   0  0  0  0  0  0  0  0  0  0  0  0
  -20.8599   34.9566  -21.3876 C   0  0  0  0  0  0  0  0  0  0  0  0
  -20.6681   40.2216  -21.5825 C   0  0  0  0  0  0  0  0  0  0  0  0
  -21.1579   41.3499  -22.2086 C   0  0  0  0  0  0  0  0  0  0  0  0
  1  2  2  0
  2  3  1  0
  2  4  1  0
  4  5  2  0
  5  6  1  0
  6  7  2  0
  7  8  1  0
  8  9  1  0
  9 10  2  0
  9 11  1  0
  9 12  1  0
 12 13  1  0
 13 14  2  0
 14 15  1  0
 15 16  2  0
 16 17  1  0
 17 18  2  0
 17 19  1  0
 16 20  1  0
 20 21  2  0
  7 22  1  0
 22 23  2  0
 23  4  1  0
 21 13  1  0
M  CHG  4   2   1   3  -1  17   1  19  -1
M  END
$$$$
