
     RDKit          3D

 37 40  0  0  0  0  0  0  0  0999 V2000
  -23.5493   12.6388  -25.2476 C   0  0  0  0  0  0  0  0  0  0  0  0
  -24.3561   11.4553  -25.5037 N   0  0  0  0  0  0  0  0  0  0  0  0
  -25.6124   11.6450  -26.1338 C   0  0  0  0  0  0  0  0  0  0  0  0
  -25.6752   11.7705  -27.3712 O   0  0  0  0  0  0  0  0  0  0  0  0
  -26.8197   11.6867  -25.2779 C   0  0  1  0  0  0  0  0  0  0  0  0
  -27.6410   10.4788  -25.5488 C   0  0  0  0  0  0  0  0  0  0  0  0
  -27.6074    9.3559  -24.7571 C   0  0  0  0  0  0  0  0  0  0  0  0
  -28.3769    8.2437  -25.0089 C   0  0  0  0  0  0  0  0  0  0  0  0
  -29.2260    8.2154  -26.0862 C   0  0  0  0  0  0  0  0  0  0  0  0
  -29.2822    9.3259  -26.8994 C   0  0  0  0  0  0  0  0  0  0  0  0
  -28.4969   10.4373  -26.6264 C   0  0  0  0  0  0  0  0  0  0  0  0
  -26.4109   11.8261  -23.9092 N   0  0  0  0  0  0  0  0  0  0  0  0
  -25.1821   12.5502  -23.8503 C   0  0  0  0  0  0  0  0  0  0  0  0
  -25.3430   14.0092  -24.2316 C   0  0  0  0  0  0  0  0  0  0  0  0
  -26.4005   14.5671  -23.3623 C   0  0  0  0  0  0  0  0  0  0  0  0
  -26.3579   15.9485  -23.1327 C   0  0  0  0  0  0  0  0  0  0  0  0
  -27.3099   16.5373  -22.3312 C   0  0  0  0  0  0  0  0  0  0  0  0
  -27.3430   17.8977  -22.0508 O   0  0  0  0  0  0  0  0  0  0  0  0
  -26.5634   18.8527  -22.7215 C   0  0  0  0  0  0  0  0  0  0  0  0
  -28.3107   15.7475  -21.7540 C   0  0  0  0  0  0  0  0  0  0  0  0
  -29.2839   16.3165  -20.9409 O   0  0  0  0  0  0  0  0  0  0  0  0
  -29.8966   15.5140  -19.9532 C   0  0  0  0  0  0  0  0  0  0  0  0
  -28.3097   14.3913  -22.0105 C   0  0  0  0  0  0  0  0  0  0  0  0
  -27.3678   13.7809  -22.8089 C   0  0  0  0  0  0  0  0  0  0  0  0
  -27.4185   12.3432  -23.0462 C   0  0  2  0  0  0  0  0  0  0  0  0
  -27.5842   11.5280  -21.7937 C   0  0  0  0  0  0  0  0  0  0  0  0
  -27.3584   12.2370  -20.5115 C   0  0  0  0  0  0  0  0  0  0  0  0
  -27.4753   11.2204  -19.4224 C   0  0  0  0  0  0  0  0  0  0  0  0
  -26.3869   10.7021  -18.7556 C   0  0  0  0  0  0  0  0  0  0  0  0
  -26.5199    9.7627  -17.7485 C   0  0  0  0  0  0  0  0  0  0  0  0
  -27.7730    9.3186  -17.3863 C   0  0  0  0  0  0  0  0  0  0  0  0
  -27.9259    8.3084  -16.3045 C   0  0  0  0  0  0  0  0  0  0  0  0
  -28.5056    7.1879  -16.8634 F   0  0  0  0  0  0  0  0  0  0  0  0
  -26.7006    8.0247  -15.7413 F   0  0  0  0  0  0  0  0  0  0  0  0
  -28.7514    8.8581  -15.3378 F   0  0  0  0  0  0  0  0  0  0  0  0
  -28.8645    9.8345  -18.0508 C   0  0  0  0  0  0  0  0  0  0  0  0
  -28.7228   10.7785  -19.0620 C   0  0  0  0  0  0  0  0  0  0  0  0
  1  2  1  0
  2  3  1  0
  3  4  2  0
  3  5  1  0
  5  6  1  0
  6  7  2  0
  7  8  1  0
  8  9  2  0
  9 10  1  0
 10 11  2  0
  5 12  1  1
 12 13  1  0
 13 14  1  0
 14 15  1  0
 15 16  2  0
 16 17  1  0
 17 18  1  0
 18 19  1  0
 17 20  2  0
 20 21  1  0
 21 22  1  0
 20 23  1  0
 23 24  2  0
 24 25  1  0
 25 26  1  1
 26 27  1  0
 27 28  1  0
 28 29  2  0
 29 30  1  0
 30 31  2  0
 31 32  1  0
 32 33  1  0
 32 34  1  0
 32 35  1  0
 31 36  1  0
 36 37  2  0
 11  6  1  0
 25 12  1  0
 37 28  1  0
 24 15  1  0
M  END
$$$$
