
     RDKit          3D

 29 31  0  0  0  0  0  0  0  0999 V2000
  -18.1723   39.0438  -22.7363 O   0  0  0  0  0  0  0  0  0  0  0  0
  -18.7882   40.0628  -22.3331 C   0  0  0  0  0  0  0  0  0  0  0  0
  -19.9626   39.9202  -21.5431 N   0  0  0  0  0  0  0  0  0  0  0  0
  -20.2309   38.7264  -20.7921 C   0  0  0  0  0  0  0  0  0  0  0  0
  -21.1533   37.8215  -21.5116 C   0  0  0  0  0  0  0  0  0  0  0  0
  -22.4923   38.0500  -21.6495 C   0  0  0  0  0  0  0  0  0  0  0  0
  -23.3516   37.2020  -22.3445 C   0  0  0  0  0  0  0  0  0  0  0  0
  -22.8429   36.0702  -22.9268 C   0  0  0  0  0  0  0  0  0  0  0  0
  -21.5281   35.8493  -22.7870 N   0  0  0  0  0  0  0  0  0  0  0  0
  -20.6788   36.6507  -22.1233 C   0  0  0  0  0  0  0  0  0  0  0  0
  -19.3397   36.3903  -21.9987 O   0  0  0  0  0  0  0  0  0  0  0  0
  -18.6781   35.1805  -21.9438 C   0  0  0  0  0  0  0  0  0  0  0  0
  -17.3957   35.2163  -21.1504 C   0  0  0  0  0  0  0  0  0  0  0  0
  -16.8409   33.9270  -21.1278 F   0  0  0  0  0  0  0  0  0  0  0  0
  -17.5857   35.5798  -19.8587 F   0  0  0  0  0  0  0  0  0  0  0  0
  -16.4712   36.0693  -21.7197 F   0  0  0  0  0  0  0  0  0  0  0  0
  -18.2559   41.3860  -22.7009 C   0  0  0  0  0  0  0  0  0  0  0  0
  -18.4433   41.9239  -23.9460 C   0  0  0  0  0  0  0  0  0  0  0  0
  -17.9655   43.1481  -24.2481 N   0  0  0  0  0  0  0  0  0  0  0  0
  -17.2914   43.8631  -23.3220 C   0  0  0  0  0  0  0  0  0  0  0  0
  -17.0643   43.3870  -22.0512 C   0  0  0  0  0  0  0  0  0  0  0  0
  -16.3383   44.1642  -21.0608 C   0  0  0  0  0  0  0  0  0  0  0  0
  -15.0501   44.5811  -21.3404 C   0  0  0  0  0  0  0  0  0  0  0  0
  -14.3016   45.2969  -20.4443 C   0  0  0  0  0  0  0  0  0  0  0  0
  -14.8040   45.6397  -19.2037 C   0  0  0  0  0  0  0  0  0  0  0  0
  -13.8252   46.5511  -18.0687 Cl  0  0  0  0  0  0  0  0  0  0  0  0
  -16.0936   45.2316  -18.9023 C   0  0  0  0  0  0  0  0  0  0  0  0
  -16.8315   44.5104  -19.8240 C   0  0  0  0  0  0  0  0  0  0  0  0
  -17.5526   42.1385  -21.7451 C   0  0  0  0  0  0  0  0  0  0  0  0
  1  2  2  0
  2  3  1  0
  3  4  1  0
  4  5  1  0
  5  6  2  0
  6  7  1  0
  7  8  2  0
  8  9  1  0
  9 10  2  0
 10 11  1  0
 11 12  1  0
 12 13  1  0
 13 14  1  0
 13 15  1  0
 13 16  1  0
  2 17  1  0
 17 18  2  0
 18 19  1  0
 19 20  2  0
 20 21  1  0
 21 22  1  0
 22 23  2  0
 23 24  1  0
 24 25  2  0
 25 26  1  0
 25 27  1  0
 27 28  2  0
 21 29  2  0
 10  5  1  0
 29 17  1  0
 28 22  1  0
M  END
$$$$
