
     RDKit          3D

 37 40  0  0  0  0  0  0  0  0999 V2000
  -20.1487   23.6317  -39.9613 C   0  0  0  0  0  0  0  0  0  0  0  0
  -20.5030   24.8294  -39.1119 C   0  0  0  0  0  0  0  0  0  0  0  0
  -21.2376   24.4739  -37.9625 O   0  0  0  0  0  0  0  0  0  0  0  0
  -21.6610   25.3874  -37.0150 C   0  0  0  0  0  0  0  0  0  0  0  0
  -21.3367   26.5835  -37.2071 O   0  0  0  0  0  0  0  0  0  0  0  0
  -22.4399   25.0539  -35.8401 C   0  0  0  0  0  0  0  0  0  0  0  0
  -23.0936   26.0533  -35.1620 C   0  0  0  0  0  0  0  0  0  0  0  0
  -23.8642   25.7772  -34.0258 C   0  0  0  0  0  0  0  0  0  0  0  0
  -23.9671   24.4933  -33.5857 C   0  0  0  0  0  0  0  0  0  0  0  0
  -24.7535   24.1902  -32.4444 N   0  0  0  0  0  0  0  0  0  0  0  0
  -24.1854   24.4605  -31.2491 C   0  0  0  0  0  0  0  0  0  0  0  0
  -24.9249   24.1594  -30.1192 C   0  0  0  0  0  0  0  0  0  0  0  0
  -24.4108   24.3893  -28.7533 C   0  0  0  0  0  0  0  0  0  0  0  0
  -24.1227   23.1717  -27.9928 C   0  0  0  0  0  0  0  0  0  0  0  0
  -24.5928   23.0589  -26.6757 C   0  0  0  0  0  0  0  0  0  0  0  0
  -24.3560   21.9580  -25.9409 N   0  0  0  0  0  0  0  0  0  0  0  0
  -23.6550   20.9235  -26.4521 C   0  0  0  0  0  0  0  0  0  0  0  0
  -23.4133   19.7779  -25.6759 O   0  0  0  0  0  0  0  0  0  0  0  0
  -23.8683   19.6999  -24.3330 C   0  0  0  0  0  0  0  0  0  0  0  0
  -23.4680   18.3666  -23.7620 C   0  0  0  0  0  0  0  0  0  0  0  0
  -23.1934   21.0010  -27.7052 N   0  0  0  0  0  0  0  0  0  0  0  0
  -23.4173   22.1056  -28.4775 C   0  0  0  0  0  0  0  0  0  0  0  0
  -26.1712   23.6135  -30.2874 C   0  0  0  0  0  0  0  0  0  0  0  0
  -26.9116   23.3096  -29.3175 O   0  0  0  0  0  0  0  0  0  0  0  0
  -26.7000   23.3605  -31.5086 N   0  0  0  0  0  0  0  0  0  0  0  0
  -25.9736   23.6571  -32.5766 C   0  0  0  0  0  0  0  0  0  0  0  0
  -26.5850   23.3682  -34.2491 S   0  0  0  0  0  0  0  0  0  0  0  0
  -28.3404   23.8056  -34.3614 C   0  0  0  0  0  0  0  0  0  0  0  0
  -28.6990   24.0947  -35.7637 C   0  0  0  0  0  0  0  0  0  0  0  0
  -29.0307   23.0899  -36.6588 C   0  0  0  0  0  0  0  0  0  0  0  0
  -29.3783   23.3533  -37.9731 C   0  0  0  0  0  0  0  0  0  0  0  0
  -29.3894   24.6670  -38.3879 C   0  0  0  0  0  0  0  0  0  0  0  0
  -29.7309   24.9400  -39.6823 F   0  0  0  0  0  0  0  0  0  0  0  0
  -29.0608   25.6758  -37.5052 C   0  0  0  0  0  0  0  0  0  0  0  0
  -28.7204   25.4051  -36.2148 C   0  0  0  0  0  0  0  0  0  0  0  0
  -23.3232   23.4865  -34.2477 C   0  0  0  0  0  0  0  0  0  0  0  0
  -22.5497   23.7487  -35.3842 C   0  0  0  0  0  0  0  0  0  0  0  0
  1  2  1  0
  2  3  1  0
  3  4  1  0
  4  5  2  0
  4  6  1  0
  6  7  2  0
  7  8  1  0
  8  9  2  0
  9 10  1  0
 10 11  1  0
 11 12  2  0
 12 13  1  0
 13 14  1  0
 14 15  2  0
 15 16  1  0
 16 17  2  0
 17 18  1  0
 18 19  1  0
 19 20  1  0
 17 21  1  0
 21 22  2  0
 12 23  1  0
 23 24  2  0
 23 25  1  0
 25 26  2  0
 26 27  1  0
 27 28  1  0
 28 29  1  0
 29 30  2  0
 30 31  1  0
 31 32  2  0
 32 33  1  0
 32 34  1  0
 34 35  2  0
  9 36  1  0
 36 37  2  0
 37  6  1  0
 26 10  1  0
 35 29  1  0
 22 14  1  0
M  END
$$$$
