
     RDKit          3D

 35 39  0  0  0  0  0  0  0  0999 V2000
  -13.3854   44.1397  -18.6465 C   0  0  0  0  0  0  0  0  0  0  0  0
  -14.5757   44.7439  -19.3838 C   0  0  0  0  0  0  0  0  0  0  0  0
  -15.6294   43.8251  -19.4333 O   0  0  0  0  0  0  0  0  0  0  0  0
  -16.8463   44.0342  -20.0741 C   0  0  0  0  0  0  0  0  0  0  0  0
  -17.0809   45.1894  -20.7700 C   0  0  0  0  0  0  0  0  0  0  0  0
  -18.2776   45.4700  -21.4364 C   0  0  0  0  0  0  0  0  0  0  0  0
  -18.4839   46.6808  -22.1186 N   0  0  0  0  0  0  0  0  0  0  0  0
  -19.7589   47.2302  -22.4202 C   0  0  0  0  0  0  0  0  0  0  0  0
  -19.8933   48.6887  -22.1155 C   0  0  0  0  0  0  0  0  0  0  0  0
  -18.7094   49.3315  -21.5035 C   0  0  0  0  0  0  0  0  0  0  0  0
  -18.9560   49.4152  -20.1078 O   0  0  0  0  0  0  0  0  0  0  0  0
  -17.3873   48.7157  -21.6822 C   0  0  0  0  0  0  0  0  0  0  0  0
  -17.3430   47.4652  -22.5348 C   0  0  0  0  0  0  0  0  0  0  0  0
  -19.2466   44.4868  -21.3535 C   0  0  0  0  0  0  0  0  0  0  0  0
  -19.0224   43.3143  -20.6527 C   0  0  0  0  0  0  0  0  0  0  0  0
  -17.8372   43.0627  -20.0062 C   0  0  0  0  0  0  0  0  0  0  0  0
  -17.6004   41.8786  -19.2818 N   0  0  0  0  0  0  0  0  0  0  0  0
  -18.0939   40.6436  -19.7818 C   0  0  0  0  0  0  0  0  0  0  0  0
  -17.6274   39.4767  -19.3481 N   0  0  0  0  0  0  0  0  0  0  0  0
  -18.1313   38.3359  -19.8587 C   0  0  0  0  0  0  0  0  0  0  0  0
  -19.1177   38.3199  -20.8198 C   0  0  0  0  0  0  0  0  0  0  0  0
  -19.5951   39.5360  -21.2648 C   0  0  0  0  0  0  0  0  0  0  0  0
  -19.0690   40.6369  -20.7325 N   0  0  0  0  0  0  0  0  0  0  0  0
  -20.5876   39.8170  -22.2432 N   0  0  0  0  0  0  0  0  0  0  0  0
  -20.6111   41.1516  -22.7944 C   0  0  0  0  0  0  0  0  0  0  0  0
  -21.5942   38.9403  -22.7783 C   0  0  0  0  0  0  0  0  0  0  0  0
  -22.6175   39.5926  -23.4056 C   0  0  0  0  0  0  0  0  0  0  0  0
  -23.6387   38.8646  -23.9595 C   0  0  0  0  0  0  0  0  0  0  0  0
  -23.6618   37.4902  -23.9016 C   0  0  0  0  0  0  0  0  0  0  0  0
  -22.6112   36.8658  -23.2597 C   0  0  0  0  0  0  0  0  0  0  0  0
  -21.5788   37.5747  -22.6976 C   0  0  0  0  0  0  0  0  0  0  0  0
  -20.5733   36.6979  -22.0663 C   0  0  0  0  0  0  0  0  0  0  0  0
  -20.7166   35.4867  -22.3670 O   0  0  0  0  0  0  0  0  0  0  0  0
  -19.4924   36.9977  -21.1921 N   0  0  0  0  0  0  0  0  0  0  0  0
  -18.7294   35.9041  -20.6458 C   0  0  0  0  0  0  0  0  0  0  0  0
  1  2  1  0
  2  3  1  0
  3  4  1  0
  4  5  2  0
  5  6  1  0
  6  7  1  0
  7  8  1  0
  8  9  1  0
  9 10  1  0
 10 11  1  0
 10 12  1  0
 12 13  1  0
  6 14  2  0
 14 15  1  0
 15 16  2  0
 16 17  1  0
 17 18  1  0
 18 19  2  0
 19 20  1  0
 20 21  2  0
 21 22  1  0
 22 23  2  0
 22 24  1  0
 24 25  1  0
 24 26  1  0
 26 27  2  0
 27 28  1  0
 28 29  2  0
 29 30  1  0
 30 31  2  0
 31 32  1  0
 32 33  2  0
 32 34  1  0
 34 35  1  0
 16  4  1  0
 23 18  1  0
 31 26  1  0
 13  7  1  0
 34 21  1  0
M  END
$$$$
