
     RDKit          3D

 24 26  0  0  0  0  0  0  0  0999 V2000
  -21.7477   39.2682  -24.3232 C   0  0  0  0  0  0  0  0  0  0  0  0
  -20.9167   39.1100  -23.1564 N   0  0  0  0  0  0  0  0  0  0  0  0
  -20.1139   40.0322  -22.6906 N   0  0  0  0  0  0  0  0  0  0  0  0
  -19.3274   39.8906  -21.5914 C   0  0  0  0  0  0  0  0  0  0  0  0
  -18.4747   40.9968  -21.1746 C   0  0  0  0  0  0  0  0  0  0  0  0
  -17.8603   40.9584  -19.9457 C   0  0  0  0  0  0  0  0  0  0  0  0
  -17.0453   42.0323  -19.5658 C   0  0  0  0  0  0  0  0  0  0  0  0
  -16.8651   43.1061  -20.4111 C   0  0  0  0  0  0  0  0  0  0  0  0
  -15.9944   44.2662  -20.0194 C   0  0  0  0  0  0  0  0  0  0  0  0
  -16.2686   44.6945  -18.7403 F   0  0  0  0  0  0  0  0  0  0  0  0
  -14.6662   43.9076  -20.0834 F   0  0  0  0  0  0  0  0  0  0  0  0
  -16.1868   45.2992  -20.9385 F   0  0  0  0  0  0  0  0  0  0  0  0
  -17.4947   43.1311  -21.6544 C   0  0  0  0  0  0  0  0  0  0  0  0
  -18.3076   42.0607  -22.0343 C   0  0  0  0  0  0  0  0  0  0  0  0
  -19.3495   38.7302  -20.9061 N   0  0  0  0  0  0  0  0  0  0  0  0
  -20.1433   37.7341  -21.3148 C   0  0  0  0  0  0  0  0  0  0  0  0
  -20.1984   36.5375  -20.6498 C   0  0  0  0  0  0  0  0  0  0  0  0
  -19.4873   36.3790  -19.6371 O   0  0  0  0  0  0  0  0  0  0  0  0
  -21.0249   35.5985  -21.1357 N   0  0  0  0  0  0  0  0  0  0  0  0
  -21.0717   34.3301  -20.4157 C   0  0  0  0  0  0  0  0  0  0  0  0
  -21.7853   35.7876  -22.2306 C   0  0  0  0  0  0  0  0  0  0  0  0
  -22.5328   34.8166  -22.5952 O   0  0  0  0  0  0  0  0  0  0  0  0
  -21.7767   36.9381  -22.9272 N   0  0  0  0  0  0  0  0  0  0  0  0
  -20.9661   37.9374  -22.4987 C   0  0  0  0  0  0  0  0  0  0  0  0
  1  2  1  0
  2  3  1  0
  3  4  2  0
  4  5  1  0
  5  6  2  0
  6  7  1  0
  7  8  2  0
  8  9  1  0
  9 10  1  0
  9 11  1  0
  9 12  1  0
  8 13  1  0
 13 14  2  0
  4 15  1  0
 15 16  2  0
 16 17  1  0
 17 18  2  0
 17 19  1  0
 19 20  1  0
 19 21  1  0
 21 22  2  0
 21 23  1  0
 23 24  2  0
 24  2  1  0
 14  5  1  0
 24 16  1  0
M  END
$$$$
