
     RDKit          3D

 35 38  0  0  0  0  0  0  0  0999 V2000
  -18.5936   41.8910  -20.8767 Cl  0  0  0  0  0  0  0  0  0  0  0  0
  -21.1568   35.0526  -22.6270 N   0  0  0  0  0  0  0  0  0  0  0  0
  -21.2797   36.3967  -22.2496 C   0  0  0  0  0  0  0  0  0  0  0  0
  -20.2909   37.1057  -21.6720 N   0  0  0  0  0  0  0  0  0  0  0  0
  -20.3457   38.2940  -21.3319 C   0  0  0  0  0  0  0  0  0  0  0  0
  -19.1934   38.9553  -20.8264 N   0  0  0  0  0  0  0  0  0  0  0  0
  -18.8838   40.2403  -21.4638 C   0  0  0  0  0  0  0  0  0  0  0  0
  -19.2287   41.3540  -20.5401 C   0  0  1  0  0  0  0  0  0  0  0  0
  -18.4961   41.0701  -19.2335 C   0  0  0  0  0  0  0  0  0  0  0  0
  -17.0208   41.0261  -19.4855 C   0  0  0  0  0  0  0  0  0  0  0  0
  -16.6832   42.3265  -20.1078 C   0  0  2  0  0  0  0  0  0  0  0  0
  -16.5514   43.3811  -18.9418 C   0  0  0  0  0  0  0  0  0  0  0  0
  -15.9731   44.3682  -19.7161 N   0  0  0  0  0  0  0  0  0  0  0  0
  -14.5598   44.9835  -19.0681 S   0  0  0  0  0  6  0  0  0  0  0  0
  -14.2170   44.0266  -17.8973 O   0  0  0  0  0  0  0  0  0  0  0  0
  -13.5916   44.3500  -20.2060 O   0  0  0  0  0  0  0  0  0  0  0  0
  -14.1619   46.5863  -18.7459 C   0  0  0  0  0  0  0  0  0  0  0  0
  -13.6991   46.9365  -17.4843 C   0  0  0  0  0  0  0  0  0  0  0  0
  -13.9702   48.2218  -17.0882 C   0  0  0  0  0  0  0  0  0  0  0  0
  -14.6698   49.0881  -17.8652 C   0  0  0  0  0  0  0  0  0  0  0  0
  -15.0683   48.7489  -19.1007 C   0  0  0  0  0  0  0  0  0  0  0  0
  -15.9542   49.5493  -19.8587 C   0  0  0  0  0  0  0  0  0  0  0  0
  -16.4042   49.0362  -21.0170 C   0  0  0  0  0  0  0  0  0  0  0  0
  -16.1038   47.8705  -21.5774 C   0  0  0  0  0  0  0  0  0  0  0  0
  -15.2307   47.0732  -20.8127 C   0  0  0  0  0  0  0  0  0  0  0  0
  -14.7897   47.5147  -19.5970 C   0  0  0  0  0  0  0  0  0  0  0  0
  -17.2589   42.6886  -21.3309 C   0  0  0  0  0  0  0  0  0  0  0  0
  -18.7752   42.6438  -21.2107 C   0  0  0  0  0  0  0  0  0  0  0  0
  -21.4465   39.0860  -21.5643 N   0  0  0  0  0  0  0  0  0  0  0  0
  -22.5416   38.4213  -22.1752 C   0  0  0  0  0  0  0  0  0  0  0  0
  -23.6520   39.1372  -22.3854 C   0  0  0  0  0  0  0  0  0  0  0  0
  -24.8079   38.4978  -22.7432 C   0  0  0  0  0  0  0  0  0  0  0  0
  -24.7818   37.1055  -22.9155 C   0  0  0  0  0  0  0  0  0  0  0  0
  -23.6111   36.4174  -22.7815 C   0  0  0  0  0  0  0  0  0  0  0  0
  -22.4162   37.0944  -22.4419 C   0  0  0  0  0  0  0  0  0  0  0  0
  2  3  1  0
  3  4  2  0
  4  5  1  0
  5  6  1  0
  6  7  1  0
  8  7  1  6
  8  9  1  0
  9 10  1  0
 10 11  1  0
 11 12  1  1
 12 13  1  0
 13 14  1  0
 14 15  2  0
 14 16  2  0
 14 17  1  0
 17 18  2  0
 18 19  1  0
 19 20  2  0
 20 21  1  0
 21 22  2  0
 22 23  1  0
 23 24  2  0
 24 25  1  0
 25 26  2  0
 11 27  1  0
 27 28  1  0
  5 29  2  0
 29 30  1  0
 30 31  2  0
 31 32  1  0
 32 33  2  0
 33 34  1  0
 34 35  2  0
 35  3  1  0
 28  8  1  0
 35 30  1  0
 26 17  1  0
 26 21  1  0
M  END
$$$$
