
     RDKit          3D

 24 26  0  0  0  0  0  0  0  0999 V2000
  -18.0870   34.2926  -21.0994 C   0  0  0  0  0  0  0  0  0  0  0  0
  -18.9290   35.3004  -21.8481 C   0  0  0  0  0  0  0  0  0  0  0  0
  -19.7518   34.6359  -22.9259 C   0  0  0  0  0  0  0  0  0  0  0  0
  -17.7534   36.5039  -22.5926 S   0  0  0  0  0  0  0  0  0  0  0  0
  -18.9660   37.8490  -22.5220 C   0  0  0  0  0  0  0  0  0  0  0  0
  -18.6060   39.0647  -21.7482 C   0  0  0  0  0  0  0  0  0  0  0  0
  -18.3914   40.2553  -22.4996 N   0  0  0  0  0  0  0  0  0  0  0  0
  -18.1850   41.5084  -21.8753 C   0  0  0  0  0  0  0  0  0  0  0  0
  -18.7686   42.4966  -22.4176 O   0  0  0  0  0  0  0  0  0  0  0  0
  -17.3450   41.6778  -20.6654 C   0  0  0  0  0  0  0  0  0  0  0  0
  -16.2992   42.5721  -20.8054 O   0  0  0  0  0  0  0  0  0  0  0  0
  -16.1515   43.7945  -20.2194 C   0  0  0  0  0  0  0  0  0  0  0  0
  -14.9557   44.0970  -19.5955 C   0  0  0  0  0  0  0  0  0  0  0  0
  -14.8109   45.3198  -19.0122 C   0  0  0  0  0  0  0  0  0  0  0  0
  -15.7989   46.2676  -19.0150 C   0  0  0  0  0  0  0  0  0  0  0  0
  -16.9864   45.9792  -19.6297 C   0  0  0  0  0  0  0  0  0  0  0  0
  -17.1461   44.7317  -20.2299 C   0  0  0  0  0  0  0  0  0  0  0  0
  -20.0372   38.8756  -21.2856 C   0  0  0  0  0  0  0  0  0  0  0  0
  -20.9809   39.6378  -21.0294 O   0  0  0  0  0  0  0  0  0  0  0  0
  -19.7330   37.5012  -21.3062 N   0  0  0  0  0  0  0  0  0  0  0  0
  -19.6984   36.1592  -20.9398 C   0  0  0  0  0  0  0  0  0  0  0  0
  -21.0997   35.5866  -20.8868 C   0  0  0  0  0  0  0  0  0  0  0  0
  -21.7490   35.2963  -21.8977 O   0  0  0  0  0  0  0  0  0  0  0  0
  -21.6200   35.4042  -19.6126 O   0  0  0  0  0  0  0  0  0  0  0  0
  1  2  1  0
  2  3  1  0
  2  4  1  0
  4  5  1  0
  5  6  1  0
  6  7  1  0
  7  8  1  0
  8  9  2  0
  8 10  1  0
 10 11  1  0
 11 12  1  0
 12 13  2  0
 13 14  1  0
 14 15  2  0
 15 16  1  0
 16 17  2  0
  6 18  1  0
 18 19  2  0
 18 20  1  0
 20 21  1  0
 21 22  1  0
 22 23  2  0
 22 24  1  0
 21  2  1  0
 20  5  1  0
 17 12  1  0
M  END
$$$$
