
     RDKit          3D

 12 12  0  0  0  0  0  0  0  0999 V2000
   -3.4428    5.4847  -43.9937 O   0  0  0  0  0  0  0  0  0  0  0  0
   -3.0116    6.6667  -43.8607 C   0  0  0  0  0  0  0  0  0  0  0  0
   -3.0421    7.2375  -42.5111 C   0  0  0  0  0  0  0  0  0  0  0  0
   -3.6591    6.2966  -41.1437 Cl  0  0  0  0  0  0  0  0  0  0  0  0
   -2.5940    8.4745  -42.3547 C   0  0  0  0  0  0  0  0  0  0  0  0
   -2.6370    9.1441  -40.7331 Cl  0  0  0  0  0  0  0  0  0  0  0  0
   -2.0931    9.2242  -43.4943 C   0  0  0  0  0  0  0  0  0  0  0  0
   -1.6795   10.3837  -43.3131 O   0  0  0  0  0  0  0  0  0  0  0  0
   -2.0648    8.6614  -44.8150 C   0  0  0  0  0  0  0  0  0  0  0  0
   -1.4613    9.5500  -46.2184 Cl  0  0  0  0  0  0  0  0  0  0  0  0
   -2.5079    7.4243  -44.9988 C   0  0  0  0  0  0  0  0  0  0  0  0
   -2.5107    6.6623  -46.5661 Cl  0  0  0  0  0  0  0  0  0  0  0  0
  1  2  2  0
  2  3  1  0
  3  4  1  0
  3  5  2  0
  5  6  1  0
  5  7  1  0
  7  8  2  0
  7  9  1  0
  9 10  1  0
  9 11  2  0
 11 12  1  0
 11  2  1  0
M  END
$$$$
