
     RDKit          3D

 21 22  0  0  0  0  0  0  0  0999 V2000
  -15.1487   42.7272  -20.0672 C   0  0  0  0  0  0  0  0  0  0  0  0
  -16.7036   43.3082  -19.4209 S   0  0  0  0  0  6  0  0  0  0  0  0
  -16.7290   44.8168  -19.3755 O   0  0  0  0  0  0  0  0  0  0  0  0
  -16.8376   42.8240  -18.0071 O   0  0  0  0  0  0  0  0  0  0  0  0
  -18.0206   42.7979  -20.3809 N   0  0  0  0  0  0  0  0  0  0  0  0
  -18.3393   41.3977  -20.5313 C   0  0  0  0  0  0  0  0  0  0  0  0
  -17.9764   40.5509  -19.4995 C   0  0  0  0  0  0  0  0  0  0  0  0
  -18.2496   39.2023  -19.5763 C   0  0  0  0  0  0  0  0  0  0  0  0
  -18.8884   38.7657  -20.7135 C   0  0  0  0  0  0  0  0  0  0  0  0
  -19.1812   37.3563  -20.8085 N   0  0  0  0  0  4  0  0  0  0  0  0
  -18.8243   36.5540  -19.9384 O   0  0  0  0  0  0  0  0  0  0  0  0
  -19.8754   36.8683  -21.8880 O   0  0  0  0  0  1  0  0  0  0  0  0
  -19.2568   39.5968  -21.7510 C   0  0  0  0  0  0  0  0  0  0  0  0
  -18.9805   40.9435  -21.6671 C   0  0  0  0  0  0  0  0  0  0  0  0
  -19.2987   41.8488  -22.6294 O   0  0  0  0  0  0  0  0  0  0  0  0
  -18.9399   41.9049  -23.9624 C   0  0  0  0  0  0  0  0  0  0  0  0
  -19.1012   43.2575  -24.5999 C   0  0  0  0  0  0  0  0  0  0  0  0
  -19.4174   43.0552  -26.0665 C   0  0  0  0  0  0  0  0  0  0  0  0
  -20.8937   42.6505  -26.1403 C   0  0  0  0  0  0  0  0  0  0  0  0
  -21.0865   41.4947  -25.1958 C   0  0  0  0  0  0  0  0  0  0  0  0
  -19.7799   40.9117  -24.7316 C   0  0  0  0  0  0  0  0  0  0  0  0
  1  2  1  0
  2  3  2  0
  2  4  2  0
  2  5  1  0
  5  6  1  0
  6  7  2  0
  7  8  1  0
  8  9  2  0
  9 10  1  0
 10 11  2  0
 10 12  1  0
  9 13  1  0
 13 14  2  0
 14 15  1  0
 15 16  1  0
 16 17  1  0
 17 18  1  0
 18 19  1  0
 19 20  1  0
 20 21  1  0
 14  6  1  0
 21 16  1  0
M  CHG  2  10   1  12  -1
M  END
$$$$
