
     RDKit          3D

 15 14  0  0  0  0  0  0  0  0999 V2000
    3.6955    9.9273  -37.9597 Cl  0  0  0  0  0  0  0  0  0  0  0  0
    3.6949    9.9271  -37.9611 Cl  0  0  0  0  0  0  0  0  0  0  0  0
    6.2995   12.1284  -35.4505 Cl  0  0  0  0  0  0  0  0  0  0  0  0
    5.2015   10.8613  -35.9437 C   0  0  0  0  0  0  0  0  0  0  0  0
    4.8989    9.8825  -35.0302 C   0  0  0  0  0  0  0  0  0  0  0  0
    4.0345    8.8821  -35.4139 C   0  0  0  0  0  0  0  0  0  0  0  0
    3.4751    8.8505  -36.6884 C   0  0  0  0  0  0  0  0  0  0  0  0
    3.7746    9.8373  -37.6225 C   0  0  0  0  0  0  0  0  0  0  0  0
    3.2208    9.8295  -38.9303 N   0  0  0  0  0  0  0  0  0  0  0  0
    2.3567    8.7921  -39.4188 C   0  0  0  0  0  0  0  0  0  0  0  0
    2.3929    8.6128  -40.8962 C   0  0  0  0  0  0  0  0  0  0  0  0
    2.5762    9.7792  -41.6766 N   0  0  0  0  0  0  0  0  0  0  0  0
    2.6014   11.0229  -40.9830 C   0  0  0  0  0  0  0  0  0  0  0  0
    3.5470   10.9277  -39.8071 C   0  0  0  0  0  0  0  0  0  0  0  0
    4.6435   10.8185  -37.1965 C   0  0  0  0  0  0  0  0  0  0  0  0
  3  4  1  0
  4  5  2  0
  5  6  1  0
  6  7  2  0
  7  8  1  0
  8  9  1  0
  9 10  1  0
 10 11  1  0
 11 12  1  0
 12 13  1  0
 13 14  1  0
  8 15  2  0
 15  4  1  0
 14  9  1  0
M  END
$$$$
