
     RDKit          3D

 11  9  0  0  0  0  0  0  0  0999 V2000
  -19.8056   36.8686  -23.1431 N   0  0  0  0  0  0  0  0  0  0  0  0
  -18.9224   36.7536  -22.0142 C   0  0  1  0  0  0  0  0  0  0  0  0
  -18.5996   35.2741  -21.8218 C   0  0  0  0  0  0  0  0  0  0  0  0
  -19.9001   34.5730  -21.5746 C   0  0  0  0  0  0  0  0  0  0  0  0
  -19.7696   33.1326  -21.3675 C   0  0  0  0  0  0  0  0  0  0  0  0
  -20.8053   32.4541  -21.1521 O   0  0  0  0  0  0  0  0  0  0  0  0
  -18.5172   32.5418  -21.4115 O   0  0  0  0  0  1  0  0  0  0  0  0
  -17.7149   37.5627  -22.2066 C   0  0  0  0  0  0  0  0  0  0  0  0
  -17.5466   38.2443  -23.2559 O   0  0  0  0  0  0  0  0  0  0  0  0
  -16.7144   37.6094  -21.2451 O   0  0  0  0  0  0  0  0  0  0  0  0
  -18.8958   35.8081  -21.9677 Na  0  0  0  0  0 15  0  0  0  0  0  0
  2  1  1  6
  2  3  1  0
  3  4  1  0
  4  5  1  0
  5  6  2  0
  5  7  1  0
  2  8  1  0
  8  9  2  0
  8 10  1  0
M  CHG  2   7  -1  11   1
M  END
$$$$
