
     RDKit          3D

 13 13  0  0  0  0  0  0  0  0999 V2000
  -19.1707   35.5498  -21.0636 N   0  0  0  0  0  0  0  0  0  0  0  0
  -18.0586   36.6033  -21.8661 S   0  0  0  0  0  6  0  0  0  0  0  0
  -16.8220   36.8111  -21.0224 O   0  0  0  0  0  0  0  0  0  0  0  0
  -17.6273   35.9269  -23.1374 O   0  0  0  0  0  0  0  0  0  0  0  0
  -18.8102   38.1503  -22.1740 C   0  0  0  0  0  0  0  0  0  0  0  0
  -19.2225   38.5188  -23.4434 C   0  0  0  0  0  0  0  0  0  0  0  0
  -19.8109   39.7533  -23.6307 C   0  0  0  0  0  0  0  0  0  0  0  0
  -20.0178   40.6586  -22.6173 C   0  0  0  0  0  0  0  0  0  0  0  0
  -20.6416   41.9580  -22.8376 C   0  0  0  0  0  0  0  0  0  0  0  0
  -20.7529   42.7199  -21.8452 O   0  0  0  0  0  0  0  0  0  0  0  0
  -21.1063   42.3843  -24.0559 O   0  0  0  0  0  0  0  0  0  0  0  0
  -19.6037   40.2877  -21.3446 C   0  0  0  0  0  0  0  0  0  0  0  0
  -19.0072   39.0452  -21.1337 C   0  0  0  0  0  0  0  0  0  0  0  0
  1  2  1  0
  2  3  2  0
  2  4  2  0
  2  5  1  0
  5  6  2  0
  6  7  1  0
  7  8  2  0
  8  9  1  0
  9 10  2  0
  9 11  1  0
  8 12  1  0
 12 13  2  0
 13  5  1  0
M  END
$$$$
