
     RDKit          3D

 29 31  0  0  0  0  0  0  0  0999 V2000
  -23.1707   46.3465  -16.4705 C   0  0  0  0  0  0  0  0  0  0  0  0
  -23.2122   44.8487  -16.2143 C   0  0  0  0  0  0  0  0  0  0  0  0
  -22.9041   44.1260  -17.4023 O   0  0  0  0  0  0  0  0  0  0  0  0
  -21.6091   43.6658  -17.6198 C   0  0  0  0  0  0  0  0  0  0  0  0
  -21.0777   43.0195  -16.6771 O   0  0  0  0  0  0  0  0  0  0  0  0
  -20.9258   43.9100  -18.8349 N   0  0  0  0  0  0  0  0  0  0  0  0
  -20.9536   45.1009  -19.6387 C   0  0  0  0  0  0  0  0  0  0  0  0
  -21.0160   44.5315  -21.0296 C   0  0  0  0  0  0  0  0  0  0  0  0
  -20.0461   43.3732  -20.9614 C   0  0  0  0  0  0  0  0  0  0  0  0
  -18.7270   43.8636  -21.4905 C   0  0  0  0  0  0  0  0  0  0  0  0
  -17.6151   43.0719  -21.1889 N   0  0  0  0  0  0  0  0  0  0  0  0
  -17.1616   42.9741  -19.8614 C   0  0  0  0  0  0  0  0  0  0  0  0
  -15.8474   43.6706  -19.6409 C   0  0  0  0  0  0  0  0  0  0  0  0
  -15.8043   45.0169  -19.3350 C   0  0  0  0  0  0  0  0  0  0  0  0
  -14.6046   45.6846  -19.1258 C   0  0  0  0  0  0  0  0  0  0  0  0
  -13.4056   45.0108  -19.2194 C   0  0  0  0  0  0  0  0  0  0  0  0
  -11.8481   45.7700  -18.9707 Cl  0  0  0  0  0  0  0  0  0  0  0  0
  -13.4486   43.6750  -19.5231 C   0  0  0  0  0  0  0  0  0  0  0  0
  -14.6462   43.0012  -19.7334 C   0  0  0  0  0  0  0  0  0  0  0  0
  -17.0241   42.2812  -22.1875 C   0  0  0  0  0  0  0  0  0  0  0  0
  -17.6847   40.9488  -22.2537 C   0  0  0  0  0  0  0  0  0  0  0  0
  -17.2467   39.7192  -21.9380 C   0  0  0  0  0  0  0  0  0  0  0  0
  -18.0682   38.6738  -22.1000 C   0  0  0  0  0  0  0  0  0  0  0  0
  -19.3289   38.8878  -22.5818 C   0  0  0  0  0  0  0  0  0  0  0  0
  -20.4291   38.0348  -22.8690 N   0  0  0  0  0  4  0  0  0  0  0  0
  -21.4881   38.4135  -23.3442 O   0  0  0  0  0  0  0  0  0  0  0  0
  -20.2836   36.6911  -22.5904 O   0  0  0  0  0  1  0  0  0  0  0  0
  -19.3236   40.6987  -22.8121 S   0  0  0  0  0  0  0  0  0  0  0  0
  -20.0508   42.9985  -19.5221 C   0  0  0  0  0  0  0  0  0  0  0  0
  1  2  1  0
  2  3  1  0
  3  4  1  0
  4  5  2  0
  4  6  1  0
  6  7  1  0
  7  8  1  0
  8  9  1  0
  9 10  1  0
 10 11  1  0
 11 12  1  0
 12 13  1  0
 13 14  2  0
 14 15  1  0
 15 16  2  0
 16 17  1  0
 16 18  1  0
 18 19  2  0
 11 20  1  0
 20 21  1  0
 21 22  2  0
 22 23  1  0
 23 24  2  0
 24 25  1  0
 25 26  2  0
 25 27  1  0
 24 28  1  0
  9 29  1  0
 29  6  1  0
 19 13  1  0
 28 21  1  0
M  CHG  2  25   1  27  -1
M  END
$$$$
