
     RDKit          3D

 30 33  0  0  0  0  0  0  0  0999 V2000
  -11.9621   17.0149  -40.4391 N   0  0  0  0  0  0  0  0  0  0  0  0
  -13.3497   17.1353  -40.8346 C   0  0  1  0  0  0  0  0  0  0  0  0
  -14.2781   17.3313  -39.6610 C   0  0  0  0  0  0  0  0  0  0  0  0
  -14.7984   18.7387  -39.6211 C   0  0  0  0  0  0  0  0  0  0  0  0
  -15.5090   19.1514  -40.8836 C   0  0  2  0  0  0  0  0  0  0  0  0
  -16.9129   18.8404  -40.8550 N   0  0  0  0  0  0  0  0  0  0  0  0
  -17.8523   19.9022  -40.9105 C   0  0  0  0  0  0  0  0  0  0  0  0
  -19.0447   19.7667  -40.2514 C   0  0  0  0  0  0  0  0  0  0  0  0
  -20.0307   20.7764  -40.2597 C   0  0  0  0  0  0  0  0  0  0  0  0
  -21.2444   20.5574  -39.5130 C   0  0  0  0  0  0  0  0  0  0  0  0
  -22.1601   19.5616  -39.6430 C   0  0  0  0  0  0  0  0  0  0  0  0
  -23.2929   19.4202  -38.8380 C   0  0  0  0  0  0  0  0  0  0  0  0
  -23.5159   20.3294  -37.8480 C   0  0  0  0  0  0  0  0  0  0  0  0
  -22.5871   21.3487  -37.7063 C   0  0  0  0  0  0  0  0  0  0  0  0
  -22.8447   22.2864  -36.6647 N   0  0  0  0  0  0  0  0  0  0  0  0
  -24.0967   22.1796  -35.9543 C   0  0  0  0  0  0  0  0  0  0  0  0
  -25.0545   23.1552  -36.5074 C   0  0  0  0  0  0  0  0  0  0  0  0
  -26.3803   23.0917  -36.1612 C   0  0  0  0  0  0  0  0  0  0  0  0
  -27.2578   24.0167  -36.6934 C   0  0  0  0  0  0  0  0  0  0  0  0
  -26.8325   25.0023  -37.5643 C   0  0  0  0  0  0  0  0  0  0  0  0
  -25.4823   25.0423  -37.8974 C   0  0  0  0  0  0  0  0  0  0  0  0
  -25.0670   26.0035  -38.7468 F   0  0  0  0  0  0  0  0  0  0  0  0
  -24.5982   24.1260  -37.3736 C   0  0  0  0  0  0  0  0  0  0  0  0
  -21.5138   21.4448  -38.5032 N   0  0  0  0  0  0  0  0  0  0  0  0
  -19.7024   21.8914  -40.9712 C   0  0  0  0  0  0  0  0  0  0  0  0
  -20.8312   23.2469  -41.0169 Cl  0  0  0  0  0  0  0  0  0  0  0  0
  -18.4798   22.0380  -41.6516 C   0  0  0  0  0  0  0  0  0  0  0  0
  -17.6007   21.0410  -41.5973 N   0  0  0  0  0  0  0  0  0  0  0  0
  -14.9036   18.5982  -42.1295 C   0  0  0  0  0  0  0  0  0  0  0  0
  -13.4630   18.2292  -41.8466 C   0  0  0  0  0  0  0  0  0  0  0  0
  2  1  1  1
  2  3  1  0
  3  4  1  0
  4  5  1  0
  5  6  1  1
  6  7  1  0
  7  8  2  0
  8  9  1  0
  9 10  1  0
 10 11  2  0
 11 12  1  0
 12 13  2  0
 13 14  1  0
 14 15  1  0
 15 16  1  0
 16 17  1  0
 17 18  2  0
 18 19  1  0
 19 20  2  0
 20 21  1  0
 21 22  1  0
 21 23  2  0
 14 24  2  0
  9 25  2  0
 25 26  1  0
 25 27  1  0
 27 28  2  0
  5 29  1  0
 29 30  1  0
 30  2  1  0
 28  7  1  0
 24 10  1  0
 23 17  1  0
M  END
$$$$
