
     RDKit          3D

 20 21  0  0  0  0  0  0  0  0999 V2000
    6.1210   23.2121  -20.0955 C   0  0  0  0  0  0  0  0  0  0  0  0
    5.7417   21.8949  -20.6975 C   0  0  0  0  0  0  0  0  0  0  0  0
    4.7537   21.2911  -19.8737 O   0  0  0  0  0  0  0  0  0  0  0  0
    4.0953   20.1733  -20.3627 C   0  0  0  0  0  0  0  0  0  0  0  0
    4.2605   19.8206  -21.5544 O   0  0  0  0  0  0  0  0  0  0  0  0
    3.2085   19.3800  -19.5425 C   0  0  0  0  0  0  0  0  0  0  0  0
    2.3718   17.8859  -20.0286 S   0  0  0  0  0  0  0  0  0  0  0  0
    1.5529   17.5986  -18.5188 C   0  0  0  0  0  0  0  0  0  0  0  0
    0.6688   16.5159  -18.1940 N   0  0  0  0  0  0  0  0  0  0  0  0
    0.9719   15.1997  -18.5977 C   0  0  0  0  0  0  0  0  0  0  0  0
    1.9632   15.0251  -19.3436 O   0  0  0  0  0  0  0  0  0  0  0  0
    0.1783   14.0480  -18.1801 C   0  0  0  0  0  0  0  0  0  0  0  0
    0.5530   12.3541  -18.5125 S   0  0  0  0  0  0  0  0  0  0  0  0
   -0.8596   11.6656  -17.6869 C   0  0  0  0  0  0  0  0  0  0  0  0
   -1.5173   12.7883  -17.2154 C   0  0  0  0  0  0  0  0  0  0  0  0
   -0.9804   13.9896  -17.4724 C   0  0  0  0  0  0  0  0  0  0  0  0
   -1.6045   15.3139  -17.0093 C   0  0  0  0  0  0  0  0  0  0  0  0
    1.9511   18.6347  -17.7381 C   0  0  0  0  0  0  0  0  0  0  0  0
    2.7937   19.5439  -18.2550 C   0  0  0  0  0  0  0  0  0  0  0  0
    3.3129   20.7546  -17.4742 C   0  0  0  0  0  0  0  0  0  0  0  0
  1  2  1  0
  2  3  1  0
  3  4  1  0
  4  5  2  0
  4  6  1  0
  6  7  1  0
  7  8  1  0
  8  9  1  0
  9 10  1  0
 10 11  2  0
 10 12  1  0
 12 13  1  0
 13 14  1  0
 14 15  2  0
 15 16  1  0
 16 17  1  0
  8 18  2  0
 18 19  1  0
 19 20  1  0
 19  6  2  0
 16 12  2  0
M  END
$$$$
