
     RDKit          3D

 16 18  0  0  0  0  0  0  0  0999 V2000
  -29.5944   11.4911  -23.6247 C   0  0  0  0  0  0  0  0  0  0  0  0
  -30.3262   11.2881  -22.4454 O   0  0  0  0  0  0  0  0  0  0  0  0
  -30.5783   12.2550  -21.4941 C   0  0  0  0  0  0  0  0  0  0  0  0
  -31.3335   13.3713  -21.8205 C   0  0  0  0  0  0  0  0  0  0  0  0
  -31.9204   13.7615  -22.9257 O   0  0  0  0  0  0  0  0  0  0  0  0
  -32.5319   14.9031  -22.7658 C   0  0  0  0  0  0  0  0  0  0  0  0
  -32.3399   15.3029  -21.4632 C   0  0  0  0  0  0  0  0  0  0  0  0
  -31.5713   14.3234  -20.8520 C   0  0  0  0  0  0  0  0  0  0  0  0
  -31.0719   14.1852  -19.5661 C   0  0  0  0  0  0  0  0  0  0  0  0
  -30.3299   13.0892  -19.2437 C   0  0  0  0  0  0  0  0  0  0  0  0
  -29.8263   12.9409  -17.9631 C   0  0  0  0  0  0  0  0  0  0  0  0
  -29.0848   11.8152  -17.6955 C   0  0  0  0  0  0  0  0  0  0  0  0
  -28.8913   10.9120  -18.7128 C   0  0  0  0  0  0  0  0  0  0  0  0
  -28.2073    9.8877  -18.4409 O   0  0  0  0  0  0  0  0  0  0  0  0
  -29.3700   11.0570  -19.9232 O   0  0  0  0  0  0  0  0  0  0  0  0
  -30.0831   12.1196  -20.2160 C   0  0  0  0  0  0  0  0  0  0  0  0
  1  2  1  0
  2  3  1  0
  3  4  2  0
  4  5  1  0
  5  6  1  0
  6  7  2  0
  7  8  1  0
  8  9  2  0
  9 10  1  0
 10 11  1  0
 11 12  2  0
 12 13  1  0
 13 14  2  0
 13 15  1  0
 15 16  1  0
 16  3  1  0
  8  4  1  0
 16 10  2  0
M  END
$$$$
