
     RDKit          3D

 19 20  0  0  0  0  0  0  0  0999 V2000
  -18.8512   41.2149  -18.6770 C   0  0  0  0  0  0  0  0  0  0  0  0
  -18.5135   40.7857  -20.0531 C   0  0  0  0  0  0  0  0  0  0  0  0
  -18.5357   39.4768  -20.4811 C   0  0  0  0  0  0  0  0  0  0  0  0
  -18.2194   39.1263  -21.7499 N   0  0  0  0  0  0  0  0  0  0  0  0
  -18.2722   37.7570  -22.0892 C   0  0  1  0  0  0  0  0  0  0  0  0
  -18.6288   36.7951  -21.0150 C   0  0  0  0  0  0  0  0  0  0  0  0
  -19.4634   35.7706  -21.7667 C   0  0  1  0  0  0  0  0  0  0  0  0
  -20.8715   35.9899  -21.5889 N   0  0  0  0  0  0  0  0  0  0  0  0
  -21.6819   35.2537  -21.0819 N   0  0  0  0  0  4  0  0  0  0  0  0
  -22.2378   34.2583  -20.5859 N   0  0  0  0  0  2  0  0  0  0  0  0
  -19.0253   36.0746  -23.1824 C   0  0  1  0  0  0  0  0  0  0  0  0
  -19.8016   35.4049  -24.2416 C   0  0  0  0  0  0  0  0  0  0  0  0
  -20.8338   36.2361  -24.6370 O   0  0  0  0  0  0  0  0  0  0  0  0
  -19.1430   37.4800  -23.1760 O   0  0  0  0  0  0  0  0  0  0  0  0
  -17.8634   40.0771  -22.6565 C   0  0  0  0  0  0  0  0  0  0  0  0
  -17.5804   39.6912  -23.8195 O   0  0  0  0  0  0  0  0  0  0  0  0
  -17.8349   41.3430  -22.2677 N   0  0  0  0  0  0  0  0  0  0  0  0
  -18.1485   41.7228  -20.9971 C   0  0  0  0  0  0  0  0  0  0  0  0
  -18.1123   42.9202  -20.6626 O   0  0  0  0  0  0  0  0  0  0  0  0
  1  2  1  0
  2  3  2  0
  3  4  1  0
  5  4  1  1
  5  6  1  0
  6  7  1  0
  7  8  1  6
  8  9  2  0
  9 10  2  0
  7 11  1  0
 11 12  1  6
 12 13  1  0
 11 14  1  0
  4 15  1  0
 15 16  2  0
 15 17  1  0
 17 18  1  0
 18 19  2  0
 18  2  1  0
 14  5  1  0
M  CHG  2   9   1  10  -1
M  END
$$$$
