
     RDKit          3D

 14 15  0  0  0  0  0  0  0  0999 V2000
  -12.6296   47.0684  -18.5999 C   0  0  0  0  0  0  0  0  0  0  0  0
  -13.4768   45.9750  -19.1722 C   0  0  0  0  0  0  0  0  0  0  0  0
  -12.9564   44.9871  -19.9827 C   0  0  0  0  0  0  0  0  0  0  0  0
  -13.7351   43.9764  -20.5127 C   0  0  0  0  0  0  0  0  0  0  0  0
  -15.0934   43.9314  -20.2343 C   0  0  0  0  0  0  0  0  0  0  0  0
  -15.9052   42.9306  -20.7498 C   0  0  0  0  0  0  0  0  0  0  0  0
  -15.2222   41.6871  -21.7765 Cl  0  0  0  0  0  0  0  0  0  0  0  0
  -17.2539   42.9055  -20.4596 C   0  0  0  0  0  0  0  0  0  0  0  0
  -17.7734   43.8981  -19.6460 C   0  0  0  0  0  0  0  0  0  0  0  0
  -19.4765   43.8940  -19.2602 Cl  0  0  0  0  0  0  0  0  0  0  0  0
  -16.9471   44.8850  -19.1435 C   0  0  0  0  0  0  0  0  0  0  0  0
  -17.4570   45.8976  -18.3180 O   0  0  0  0  0  0  0  0  0  0  0  0
  -15.5900   44.9309  -19.4210 C   0  0  0  0  0  0  0  0  0  0  0  0
  -14.7973   45.9055  -18.9195 N   0  0  0  0  0  0  0  0  0  0  0  0
  1  2  1  0
  2  3  2  0
  3  4  1  0
  4  5  2  0
  5  6  1  0
  6  7  1  0
  6  8  2  0
  8  9  1  0
  9 10  1  0
  9 11  2  0
 11 12  1  0
 11 13  1  0
 13 14  2  0
 14  2  1  0
 13  5  1  0
M  END
$$$$
