
     RDKit          3D

 20 22  0  0  0  0  0  0  0  0999 V2000
  -20.3111   41.0016  -21.1228 O   0  0  0  0  0  0  0  0  0  0  0  0
  -19.3563   40.2046  -21.0784 C   0  0  0  0  0  0  0  0  0  0  0  0
  -18.0919   40.7270  -20.8568 O   0  0  0  0  0  0  0  0  0  0  0  0
  -19.5708   38.7576  -21.2562 C   0  0  0  0  0  0  0  0  0  0  0  0
  -18.5753   37.8069  -21.2241 C   0  0  0  0  0  0  0  0  0  0  0  0
  -19.1780   36.5786  -21.4301 C   0  0  0  0  0  0  0  0  0  0  0  0
  -18.7110   35.2878  -21.5024 C   0  0  0  0  0  0  0  0  0  0  0  0
  -19.5283   34.2018  -21.7218 C   0  0  0  0  0  0  0  0  0  0  0  0
  -19.0414   32.9022  -21.7924 O   0  0  0  0  0  0  0  0  0  0  0  0
  -18.9834   32.1574  -22.9668 C   0  0  0  0  0  0  0  0  0  0  0  0
  -17.5765   31.8307  -23.3081 C   0  0  0  0  0  0  0  0  0  0  0  0
  -16.9484   32.4051  -24.3927 C   0  0  0  0  0  0  0  0  0  0  0  0
  -15.6464   32.1102  -24.7183 C   0  0  0  0  0  0  0  0  0  0  0  0
  -14.9094   31.2100  -23.9538 C   0  0  0  0  0  0  0  0  0  0  0  0
  -15.5424   30.6387  -22.8707 C   0  0  0  0  0  0  0  0  0  0  0  0
  -16.8452   30.9266  -22.5355 C   0  0  0  0  0  0  0  0  0  0  0  0
  -20.8765   34.4865  -21.8691 C   0  0  0  0  0  0  0  0  0  0  0  0
  -21.3704   35.7580  -21.8023 C   0  0  0  0  0  0  0  0  0  0  0  0
  -20.5247   36.8307  -21.5805 C   0  0  0  0  0  0  0  0  0  0  0  0
  -20.7606   38.1714  -21.4727 N   0  0  0  0  0  0  0  0  0  0  0  0
  1  2  2  0
  2  3  1  0
  2  4  1  0
  4  5  2  0
  5  6  1  0
  6  7  2  0
  7  8  1  0
  8  9  1  0
  9 10  1  0
 10 11  1  0
 11 12  2  0
 12 13  1  0
 13 14  2  0
 14 15  1  0
 15 16  2  0
  8 17  2  0
 17 18  1  0
 18 19  2  0
 19 20  1  0
 20  4  1  0
 19  6  1  0
 16 11  1  0
M  END
$$$$
