
     RDKit          3D

 30 32  0  0  0  0  0  0  0  0999 V2000
  -18.7527   17.6691  -36.6660 C   0  0  0  0  0  0  0  0  0  0  0  0
  -18.8628   18.6422  -35.5228 C   0  0  0  0  0  0  0  0  0  0  0  0
  -17.4845   18.9950  -34.9947 C   0  0  0  0  0  0  0  0  0  0  0  0
  -16.6809   17.7767  -34.6965 C   0  0  0  0  0  0  0  0  0  0  0  0
  -17.7227   19.7254  -33.6668 C   0  0  0  0  0  0  0  0  0  0  0  0
  -16.8247   19.9097  -35.9721 C   0  0  0  0  0  0  0  0  0  0  0  0
  -15.8205   20.6228  -35.6284 O   0  0  0  0  0  0  0  0  0  0  0  0
  -17.2352   20.0486  -37.2739 O   0  0  0  0  0  0  0  0  0  0  0  0
  -16.8501   19.2270  -38.3528 C   0  0  1  0  0  0  0  0  0  0  0  0
  -16.7513   17.7619  -37.9916 C   0  0  0  0  0  0  0  0  0  0  0  0
  -15.7272   17.1644  -38.9609 C   0  0  1  0  0  0  0  0  0  0  0  0
  -15.8579   15.6635  -38.8602 C   0  0  0  0  0  0  0  0  0  0  0  0
  -16.1262   17.5391  -40.3667 C   0  0  0  0  0  0  0  0  0  0  0  0
  -16.8967   18.5425  -40.6413 C   0  0  0  0  0  0  0  0  0  0  0  0
  -17.2743   18.8848  -42.0265 C   0  0  0  0  0  0  0  0  0  0  0  0
  -18.4454   19.4236  -42.2095 C   0  0  0  0  0  0  0  0  0  0  0  0
  -19.4114   19.7034  -41.0803 C   0  0  2  0  0  0  0  0  0  0  0  0
  -19.6219   21.1971  -41.1262 C   0  0  0  0  0  0  0  0  0  0  0  0
  -18.9905   19.1859  -39.7667 C   0  0  2  0  0  0  0  0  0  0  0  0
  -19.7613   19.5044  -38.5830 C   0  0  0  0  0  0  0  0  0  0  0  0
  -21.2051   19.7627  -38.6752 C   0  0  0  0  0  0  0  0  0  0  0  0
  -21.9067   20.7648  -37.8554 C   0  0  2  0  0  0  0  0  0  0  0  0
  -23.3995   20.8111  -38.1075 C   0  0  0  0  0  0  0  0  0  0  0  0
  -23.8306   22.1851  -38.5831 C   0  0  1  0  0  0  0  0  0  0  0  0
  -25.2031   22.2879  -38.6328 O   0  0  0  0  0  0  0  0  0  0  0  0
  -23.3591   23.2398  -37.5642 C   0  0  0  0  0  0  0  0  0  0  0  0
  -21.8544   23.1852  -37.6835 C   0  0  0  0  0  0  0  0  0  0  0  0
  -21.1806   24.1812  -37.2804 O   0  0  0  0  0  0  0  0  0  0  0  0
  -21.3238   22.0465  -38.2283 O   0  0  0  0  0  0  0  0  0  0  0  0
  -17.5005   19.4625  -39.6394 C   0  0  1  0  0  0  0  0  0  0  0  0
  1  2  1  0
  2  3  1  0
  3  4  1  0
  3  5  1  0
  3  6  1  0
  6  7  2  0
  6  8  1  0
  9  8  1  1
  9 10  1  0
 10 11  1  0
 11 12  1  6
 11 13  1  0
 13 14  2  0
 14 15  1  0
 15 16  2  0
 16 17  1  0
 17 18  1  1
 17 19  1  0
 19 20  1  1
 20 21  1  0
 22 21  1  6
 22 23  1  0
 23 24  1  0
 24 25  1  1
 24 26  1  0
 26 27  1  0
 27 28  2  0
 27 29  1  0
 19 30  1  0
 30  9  1  0
 30 14  1  6
 29 22  1  0
M  END
$$$$
