
     RDKit          3D

 30 32  0  0  0  0  0  0  0  0999 V2000
  -10.8612   18.4484  -41.9901 C   0  0  0  0  0  0  0  0  0  0  0  0
  -12.3044   18.0448  -42.1073 C   0  0  0  0  0  0  0  0  0  0  0  0
  -13.0847   19.1506  -42.4600 O   0  0  0  0  0  0  0  0  0  0  0  0
  -14.4541   19.2675  -42.3452 C   0  0  0  0  0  0  0  0  0  0  0  0
  -15.1557   18.5194  -41.4304 C   0  0  0  0  0  0  0  0  0  0  0  0
  -16.5121   18.6629  -41.3479 C   0  0  0  0  0  0  0  0  0  0  0  0
  -17.2206   17.9314  -40.3167 C   0  0  0  0  0  0  0  0  0  0  0  0
  -18.2579   18.3567  -39.6377 C   0  0  0  0  0  0  0  0  0  0  0  0
  -19.5336   18.8774  -40.1848 C   0  0  0  0  0  0  0  0  0  0  0  0
  -19.7684   18.9235  -41.4150 O   0  0  0  0  0  0  0  0  0  0  0  0
  -20.3200   19.2620  -39.0724 N   0  0  0  0  0  0  0  0  0  0  0  0
  -21.6330   19.8186  -39.1461 C   0  0  0  0  0  0  0  0  0  0  0  0
  -21.9712   20.8877  -39.9286 C   0  0  0  0  0  0  0  0  0  0  0  0
  -23.2475   21.4138  -39.9877 C   0  0  0  0  0  0  0  0  0  0  0  0
  -24.2237   20.8277  -39.2177 C   0  0  0  0  0  0  0  0  0  0  0  0
  -23.9319   19.7461  -38.4114 C   0  0  0  0  0  0  0  0  0  0  0  0
  -22.6504   19.2471  -38.3761 C   0  0  0  0  0  0  0  0  0  0  0  0
  -19.5720   18.9935  -37.9342 N   0  0  0  0  0  0  0  0  0  0  0  0
  -18.4103   18.4867  -38.2079 C   0  0  0  0  0  0  0  0  0  0  0  0
  -17.3523   18.1304  -37.2027 C   0  0  0  0  0  0  0  0  0  0  0  0
  -17.1337   19.5538  -42.1868 C   0  0  0  0  0  0  0  0  0  0  0  0
  -16.4199   20.3160  -43.1201 C   0  0  0  0  0  0  0  0  0  0  0  0
  -17.2786   21.3722  -44.2245 Cl  0  0  0  0  0  0  0  0  0  0  0  0
  -15.0747   20.1837  -43.2089 C   0  0  0  0  0  0  0  0  0  0  0  0
  -14.2843   20.8635  -44.0715 O   0  0  0  0  0  0  0  0  0  0  0  0
  -13.4221   21.9222  -43.9404 C   0  0  0  0  0  0  0  0  0  0  0  0
  -12.6869   22.4395  -45.0900 C   0  0  0  0  0  0  0  0  0  0  0  0
  -12.6796   21.7287  -46.1704 O   0  0  0  0  0  0  0  0  0  0  0  0
  -11.9964   23.6071  -45.1430 O   0  0  0  0  0  0  0  0  0  0  0  0
  -11.1594   23.9526  -46.2382 C   0  0  0  0  0  0  0  0  0  0  0  0
  1  2  1  0
  2  3  1  0
  3  4  1  0
  4  5  2  0
  5  6  1  0
  6  7  1  0
  7  8  2  0
  8  9  1  0
  9 10  2  0
  9 11  1  0
 11 12  1  0
 12 13  2  0
 13 14  1  0
 14 15  2  0
 15 16  1  0
 16 17  2  0
 11 18  1  0
 18 19  2  0
 19 20  1  0
  6 21  2  0
 21 22  1  0
 22 23  1  0
 22 24  2  0
 24 25  1  0
 25 26  1  0
 26 27  1  0
 27 28  2  0
 27 29  1  0
 29 30  1  0
 24  4  1  0
 19  8  1  0
 17 12  1  0
M  END
$$$$
