
     RDKit          3D

 31 33  0  0  0  0  0  0  0  0999 V2000
  -17.5516   37.7277  -21.7194 C   0  0  0  0  0  0  0  0  0  0  0  0
  -18.4121   38.1363  -20.5318 C   0  0  0  0  0  0  0  0  0  0  0  0
  -18.4085   39.5230  -20.3398 O   0  0  0  0  0  0  0  0  0  0  0  0
  -18.4215   40.4219  -21.3622 C   0  0  0  0  0  0  0  0  0  0  0  0
  -18.6360   40.0758  -22.5343 O   0  0  0  0  0  0  0  0  0  0  0  0
  -18.1657   41.9310  -21.0991 C   0  0  2  0  0  0  0  0  0  0  0  0
  -17.8974   41.9656  -19.6317 C   0  0  0  0  0  0  0  0  0  0  0  0
  -16.5431   41.4837  -19.2567 C   0  0  0  0  0  0  0  0  0  0  0  0
  -15.6094   42.6479  -19.0083 C   0  0  0  0  0  0  0  0  0  0  0  0
  -15.7843   43.4771  -17.9273 C   0  0  0  0  0  0  0  0  0  0  0  0
  -14.9484   44.5324  -17.6911 C   0  0  0  0  0  0  0  0  0  0  0  0
  -13.9070   44.7691  -18.5573 C   0  0  0  0  0  0  0  0  0  0  0  0
  -13.7008   43.9606  -19.6497 C   0  0  0  0  0  0  0  0  0  0  0  0
  -14.5644   42.8997  -19.8622 C   0  0  0  0  0  0  0  0  0  0  0  0
  -19.2809   42.5976  -21.5364 N   0  0  0  0  0  0  0  0  0  0  0  0
  -20.2255   42.2398  -22.4744 C   0  0  1  0  0  0  0  0  0  0  0  0
  -20.9324   40.9271  -22.1796 C   0  0  0  0  0  0  0  0  0  0  0  0
  -21.2975   43.3498  -22.4213 C   0  0  0  0  0  0  0  0  0  0  0  0
  -22.0991   43.3903  -21.4444 O   0  0  0  0  0  0  0  0  0  0  0  0
  -21.4168   44.3257  -23.4237 N   0  0  0  0  0  0  0  0  0  0  0  0
  -22.3519   45.4245  -23.4377 C   0  0  2  0  0  0  0  0  0  0  0  0
  -23.7269   44.9207  -23.8097 C   0  0  0  0  0  0  0  0  0  0  0  0
  -23.9301   44.3717  -24.9229 O   0  0  0  0  0  0  0  0  0  0  0  0
  -24.8142   45.0330  -22.9638 O   0  0  0  0  0  0  0  0  0  0  0  0
  -21.9278   46.2463  -24.6778 C   0  0  0  0  0  0  0  0  0  0  0  0
  -21.4953   45.1085  -25.5760 C   0  0  1  0  0  0  0  0  0  0  0  0
  -20.6813   45.5371  -26.7413 C   0  0  0  0  0  0  0  0  0  0  0  0
  -19.9953   44.3113  -27.3058 C   0  0  0  0  0  0  0  0  0  0  0  0
  -20.5084   43.0295  -26.7004 C   0  0  0  0  0  0  0  0  0  0  0  0
  -20.3637   42.9930  -25.2015 C   0  0  0  0  0  0  0  0  0  0  0  0
  -20.5893   44.3628  -24.6175 C   0  0  2  0  0  0  0  0  0  0  0  0
  1  2  1  0
  2  3  1  0
  3  4  1  0
  4  5  2  0
  4  6  1  0
  6  7  1  1
  7  8  1  0
  8  9  1  0
  9 10  2  0
 10 11  1  0
 11 12  2  0
 12 13  1  0
 13 14  2  0
  6 15  1  0
 15 16  1  0
 16 17  1  1
 16 18  1  0
 18 19  2  0
 18 20  1  0
 20 21  1  0
 21 22  1  6
 22 23  2  0
 22 24  1  0
 21 25  1  0
 26 25  1  1
 26 27  1  0
 27 28  1  0
 28 29  1  0
 29 30  1  0
 31 30  1  6
 14  9  1  0
 31 20  1  0
 31 26  1  0
M  END
$$$$
