
     RDKit          3D

 45 50  0  0  0  0  0  0  0  0999 V2000
  -22.1019   41.8566  -27.4082 C   0  0  0  0  0  0  0  0  0  0  0  0
  -22.2959   42.6650  -26.1412 C   0  0  0  0  0  0  0  0  0  0  0  0
  -21.2891   42.2185  -25.2179 O   0  0  0  0  0  0  0  0  0  0  0  0
  -21.6224   41.2915  -24.2436 C   0  0  0  0  0  0  0  0  0  0  0  0
  -22.7212   40.5298  -24.2051 N   0  0  0  0  0  0  0  0  0  0  0  0
  -22.6866   39.7488  -23.1097 C   0  0  0  0  0  0  0  0  0  0  0  0
  -23.5653   38.8065  -22.6203 C   0  0  0  0  0  0  0  0  0  0  0  0
  -23.2993   38.1254  -21.4675 C   0  0  0  0  0  0  0  0  0  0  0  0
  -22.1241   38.4082  -20.8137 C   0  0  0  0  0  0  0  0  0  0  0  0
  -21.1946   39.3550  -21.2669 C   0  0  0  0  0  0  0  0  0  0  0  0
  -19.8442   39.3637  -20.7004 C   0  0  0  0  0  0  0  0  0  0  0  0
  -19.8642   39.3546  -19.4108 O   0  0  0  0  0  0  0  0  0  0  0  0
  -18.6703   39.3628  -21.2848 O   0  0  0  0  0  0  0  0  0  0  0  0
  -17.2952   39.3269  -20.3760 C   0  0  0  0  0  0  0  0  0  0  0  0
  -16.4758   38.2905  -21.5188 C   0  0  0  0  0  0  0  0  0  0  0  0
  -16.8247   40.4037  -20.8721 O   0  0  0  0  0  0  0  0  0  0  0  0
  -16.5588   41.1425  -21.9327 C   0  0  0  0  0  0  0  0  0  0  0  0
  -16.9846   40.8157  -23.0437 O   0  0  0  0  0  0  0  0  0  0  0  0
  -15.8009   42.3229  -21.9019 O   0  0  0  0  0  0  0  0  0  0  0  0
  -15.4977   42.9275  -20.6687 C   0  0  0  0  0  0  0  0  0  0  0  0
  -14.1518   43.5440  -20.5644 C   0  0  0  0  0  0  0  0  0  0  0  0
  -14.2164   45.0603  -20.6645 C   0  0  0  0  0  0  0  0  0  0  0  0
  -15.0908   45.7015  -19.6320 C   0  0  0  0  0  0  0  0  0  0  0  0
  -16.2542   44.7896  -19.2407 C   0  0  0  0  0  0  0  0  0  0  0  0
  -16.5962   44.0168  -20.4850 C   0  0  0  0  0  0  0  0  0  0  0  0
  -21.4915   40.0355  -22.4208 C   0  0  0  0  0  0  0  0  0  0  0  0
  -20.8684   40.9908  -23.1347 N   0  0  0  0  0  0  0  0  0  0  0  0
  -19.7619   41.8337  -22.6954 C   0  0  0  0  0  0  0  0  0  0  0  0
  -20.3218   42.9848  -21.8476 C   0  0  0  0  0  0  0  0  0  0  0  0
  -20.0126   43.1634  -20.5347 C   0  0  0  0  0  0  0  0  0  0  0  0
  -20.4818   44.2326  -19.7975 C   0  0  0  0  0  0  0  0  0  0  0  0
  -21.2997   45.1729  -20.3965 C   0  0  0  0  0  0  0  0  0  0  0  0
  -21.7491   46.2920  -19.5811 C   0  0  0  0  0  0  0  0  0  0  0  0
  -21.5536   47.5613  -20.1228 C   0  0  0  0  0  0  0  0  0  0  0  0
  -21.9688   48.6956  -19.4427 C   0  0  0  0  0  0  0  0  0  0  0  0
  -22.5827   48.5430  -18.2130 C   0  0  0  0  0  0  0  0  0  0  0  0
  -22.7916   47.3152  -17.6457 C   0  0  0  0  0  0  0  0  0  0  0  0
  -22.3552   46.1811  -18.3661 C   0  0  0  0  0  0  0  0  0  0  0  0
  -22.5661   44.8654  -17.7591 C   0  0  0  0  0  0  0  0  0  0  0  0
  -22.9037   43.7540  -18.4629 N   0  0  0  0  0  0  0  0  0  0  0  0
  -23.0406   42.7130  -17.6361 N   0  0  0  0  0  0  0  0  0  0  0  0
  -22.7868   43.1959  -16.4374 N   0  0  0  0  0  0  0  0  0  0  0  0
  -22.5018   44.4823  -16.5035 N   0  0  0  0  0  0  0  0  0  0  0  0
  -21.6214   45.0042  -21.7267 C   0  0  0  0  0  0  0  0  0  0  0  0
  -21.1384   43.9196  -22.4456 C   0  0  0  0  0  0  0  0  0  0  0  0
  1  2  1  0
  2  3  1  0
  3  4  1  0
  4  5  2  0
  5  6  1  0
  6  7  2  0
  7  8  1  0
  8  9  2  0
  9 10  1  0
 10 11  1  0
 11 12  2  0
 11 13  1  0
 13 14  1  0
 14 15  1  0
 14 16  1  0
 16 17  1  0
 17 18  2  0
 17 19  1  0
 19 20  1  0
 20 21  1  0
 21 22  1  0
 22 23  1  0
 23 24  1  0
 24 25  1  0
 10 26  2  0
 26 27  1  0
 27 28  1  0
 28 29  1  0
 29 30  2  0
 30 31  1  0
 31 32  2  0
 32 33  1  0
 33 34  2  0
 34 35  1  0
 35 36  2  0
 36 37  1  0
 37 38  2  0
 38 39  1  0
 39 40  1  0
 40 41  2  0
 41 42  1  0
 42 43  1  0
 32 44  1  0
 44 45  2  0
 27  4  1  0
 45 29  1  0
 26  6  1  0
 38 33  1  0
 43 39  2  0
 25 20  1  0
M  END
$$$$
