
     RDKit          3D

 35 37  0  0  0  0  0  0  0  0999 V2000
  -12.0168   11.6324  -25.4915 C   0  0  0  0  0  0  0  0  0  0  0  0
  -12.4538   10.9116  -26.6245 O   0  0  0  0  0  0  0  0  0  0  0  0
  -13.2322   11.5470  -27.5833 C   0  0  0  0  0  0  0  0  0  0  0  0
  -12.8190   12.7339  -28.1327 C   0  0  0  0  0  0  0  0  0  0  0  0
  -13.5960   13.3713  -29.0913 C   0  0  0  0  0  0  0  0  0  0  0  0
  -14.7913   12.8314  -29.5118 C   0  0  0  0  0  0  0  0  0  0  0  0
  -15.5884   13.5770  -30.5188 C   0  0  0  0  0  0  0  0  0  0  0  0
  -16.7953   14.0886  -29.8549 C   0  0  0  0  0  0  0  0  0  0  0  0
  -16.8155   14.2919  -28.5958 O   0  0  0  0  0  0  0  0  0  0  0  0
  -17.9999   14.3814  -30.5821 N   0  0  0  0  0  0  0  0  0  0  0  0
  -19.2921   14.4739  -29.8794 C   0  0  0  0  0  0  0  0  0  0  0  0
  -19.8795   15.7494  -30.1812 N   0  0  0  0  0  0  0  0  0  0  0  0
  -19.1870   16.8699  -30.7003 C   0  0  0  0  0  0  0  0  0  0  0  0
  -17.9377   16.9832  -30.4753 N   0  0  0  0  0  0  0  0  0  0  0  0
  -17.0752   17.6415  -31.3274 C   0  0  0  0  0  0  0  0  0  0  0  0
  -16.3086   18.2068  -32.0579 N   0  0  0  0  0  0  0  0  0  0  0  0
  -19.7745   17.8921  -31.5080 N   0  0  0  0  0  0  0  0  0  0  0  0
  -19.5268   19.2442  -31.3403 C   0  0  0  0  0  0  0  0  0  0  0  0
  -18.6025   19.7339  -30.4581 C   0  0  0  0  0  0  0  0  0  0  0  0
  -18.4144   21.0882  -30.2152 C   0  0  0  0  0  0  0  0  0  0  0  0
  -19.1991   21.9933  -30.8974 C   0  0  0  0  0  0  0  0  0  0  0  0
  -20.1393   21.5381  -31.7925 C   0  0  0  0  0  0  0  0  0  0  0  0
  -20.8626   22.4629  -32.4320 N   0  0  0  0  0  0  0  0  0  0  0  0
  -21.8046   22.1259  -33.3397 C   0  0  0  0  0  0  0  0  0  0  0  0
  -21.9842   20.7858  -33.5747 C   0  0  0  0  0  0  0  0  0  0  0  0
  -21.2482   19.7898  -32.9269 C   0  0  0  0  0  0  0  0  0  0  0  0
  -20.3020   20.1901  -32.0118 C   0  0  0  0  0  0  0  0  0  0  0  0
  -20.1816   13.3550  -30.2791 C   0  0  0  0  0  0  0  0  0  0  0  0
  -20.5272   13.4221  -31.7710 C   0  0  0  0  0  0  0  0  0  0  0  0
  -19.6245   12.0035  -30.0347 C   0  0  0  0  0  0  0  0  0  0  0  0
  -21.5074   13.5674  -29.5469 C   0  0  0  0  0  0  0  0  0  0  0  0
  -15.2095   11.6415  -28.9648 C   0  0  0  0  0  0  0  0  0  0  0  0
  -14.4373   10.9996  -28.0039 C   0  0  0  0  0  0  0  0  0  0  0  0
  -14.8573    9.8002  -27.4502 O   0  0  0  0  0  0  0  0  0  0  0  0
  -15.5668    8.8866  -28.2847 C   0  0  0  0  0  0  0  0  0  0  0  0
  1  2  1  0
  2  3  1  0
  3  4  2  0
  4  5  1  0
  5  6  2  0
  6  7  1  0
  7  8  1  0
  8  9  2  0
  8 10  1  0
 10 11  1  0
 11 12  1  0
 12 13  1  0
 13 14  2  0
 14 15  1  0
 15 16  3  0
 13 17  1  0
 17 18  1  0
 18 19  2  0
 19 20  1  0
 20 21  2  0
 21 22  1  0
 22 23  2  0
 23 24  1  0
 24 25  2  0
 25 26  1  0
 26 27  2  0
 11 28  1  0
 28 29  1  0
 28 30  1  0
 28 31  1  0
  6 32  1  0
 32 33  2  0
 33 34  1  0
 34 35  1  0
 33  3  1  0
 27 18  1  0
 27 22  1  0
M  END
$$$$
