
     RDKit          3D

 37 40  0  0  0  0  0  0  0  0999 V2000
  -27.9882    0.0925  -28.1823 C   0  0  0  0  0  0  0  0  0  0  0  0
  -27.1841   -0.5174  -29.2906 C   0  0  0  0  0  0  0  0  0  0  0  0
  -27.4090    0.3602  -30.8385 S   0  0  0  0  0  6  0  0  0  0  0  0
  -27.9638    1.7277  -30.5572 O   0  0  0  0  0  0  0  0  0  0  0  0
  -28.3396   -0.3791  -31.7304 O   0  0  0  0  0  0  0  0  0  0  0  0
  -25.8397    0.5653  -31.5123 N   0  0  0  0  0  0  0  0  0  0  0  0
  -25.2330    1.8084  -31.1605 C   0  0  0  0  0  0  0  0  0  0  0  0
  -23.8400    1.6741  -30.6075 C   0  0  0  0  0  0  0  0  0  0  0  0
  -22.9258    0.9802  -31.6703 C   0  0  0  0  0  0  0  0  0  0  0  0
  -21.6515    0.6490  -31.0512 C   0  0  0  0  0  0  0  0  0  0  0  0
  -21.2748    1.8320  -30.1336 C   0  0  0  0  0  0  0  0  0  0  0  0
  -20.4971    0.3305  -31.7908 N   0  0  0  0  0  0  0  0  0  0  0  0
  -19.7967   -0.7929  -31.4374 C   0  0  0  0  0  0  0  0  0  0  0  0
  -20.0589   -1.7606  -30.3470 C   0  0  0  0  0  0  0  0  0  0  0  0
  -18.7156   -0.9302  -32.2816 C   0  0  0  0  0  0  0  0  0  0  0  0
  -17.7132   -1.9997  -32.1985 C   0  0  0  0  0  0  0  0  0  0  0  0
  -17.8671   -2.8121  -31.2589 O   0  0  0  0  0  0  0  0  0  0  0  0
  -16.6328   -2.1868  -33.0613 N   0  0  0  0  0  0  0  0  0  0  0  0
  -15.2905   -2.6014  -32.7923 C   0  0  0  0  0  0  0  0  0  0  0  0
  -14.2357   -1.5823  -32.9705 C   0  0  0  0  0  0  0  0  0  0  0  0
  -13.3989   -1.5349  -34.0436 C   0  0  0  0  0  0  0  0  0  0  0  0
  -13.4052   -2.4866  -35.0353 O   0  0  0  0  0  0  0  0  0  0  0  0
  -13.2311   -2.1566  -36.3945 C   0  0  0  0  0  0  0  0  0  0  0  0
  -12.4971   -0.4969  -34.1465 C   0  0  0  0  0  0  0  0  0  0  0  0
  -12.3983    0.5021  -33.2080 C   0  0  0  0  0  0  0  0  0  0  0  0
  -11.4266    1.6175  -33.3261 C   0  0  0  0  0  0  0  0  0  0  0  0
  -13.2208    0.4509  -32.1531 N   0  0  0  0  0  0  0  0  0  0  0  0
  -14.0975   -0.5427  -32.0385 C   0  0  0  0  0  0  0  0  0  0  0  0
  -14.8643   -0.5844  -31.0482 O   0  0  0  0  0  0  0  0  0  0  0  0
  -18.7854    0.1361  -33.1407 C   0  0  0  0  0  0  0  0  0  0  0  0
  -17.9774    0.5589  -34.1857 C   0  0  0  0  0  0  0  0  0  0  0  0
  -18.2687    1.7076  -34.8913 C   0  0  0  0  0  0  0  0  0  0  0  0
  -19.3719    2.4504  -34.5604 C   0  0  0  0  0  0  0  0  0  0  0  0
  -20.2057    2.0666  -33.5226 C   0  0  0  0  0  0  0  0  0  0  0  0
  -19.9009    0.9233  -32.8327 C   0  0  0  0  0  0  0  0  0  0  0  0
  -23.6799   -0.2784  -32.0056 C   0  0  0  0  0  0  0  0  0  0  0  0
  -24.9246   -0.4997  -31.1788 C   0  0  0  0  0  0  0  0  0  0  0  0
  1  2  1  0
  2  3  1  0
  3  4  2  0
  3  5  2  0
  3  6  1  0
  6  7  1  0
  7  8  1  0
  8  9  1  0
  9 10  1  0
 10 11  1  0
 10 12  1  0
 12 13  1  0
 13 14  1  0
 13 15  2  0
 15 16  1  0
 16 17  2  0
 16 18  1  0
 18 19  1  0
 19 20  1  0
 20 21  2  0
 21 22  1  0
 22 23  1  0
 21 24  1  0
 24 25  2  0
 25 26  1  0
 25 27  1  0
 27 28  1  0
 28 29  2  0
 15 30  1  0
 30 31  2  0
 31 32  1  0
 32 33  2  0
 33 34  1  0
 34 35  2  0
  9 36  1  0
 36 37  1  0
 37  6  1  0
 35 12  1  0
 28 20  1  0
 35 30  1  0
M  END
$$$$
