
     RDKit          3D

 30 33  0  0  0  0  0  0  0  0999 V2000
  -32.3441    8.5764  -20.3226 C   0  0  0  0  0  0  0  0  0  0  0  0
  -31.1741    9.4631  -19.8824 C   0  0  0  0  0  0  0  0  0  0  0  0
  -30.3623    9.8368  -21.1141 C   0  0  0  0  0  0  0  0  0  0  0  0
  -30.3831    8.7058  -19.0542 O   0  0  0  0  0  0  0  0  0  0  0  0
  -31.6892   10.7151  -19.2085 C   0  0  0  0  0  0  0  0  0  0  0  0
  -30.5893   11.3802  -18.5443 N   0  0  0  0  0  0  0  0  0  0  0  0
  -29.8867   12.4656  -19.1432 C   0  0  0  0  0  0  0  0  0  0  0  0
  -28.9150   13.0687  -18.4289 N   0  0  0  0  0  0  0  0  0  0  0  0
  -28.1963   14.0766  -18.8798 C   0  0  0  0  0  0  0  0  0  0  0  0
  -28.4497   14.5625  -20.1882 C   0  0  0  0  0  0  0  0  0  0  0  0
  -27.5949   15.6845  -20.6093 C   0  0  0  0  0  0  0  0  0  0  0  0
  -27.4885   16.8728  -19.9688 C   0  0  0  0  0  0  0  0  0  0  0  0
  -26.6877   17.8576  -20.5696 C   0  0  0  0  0  0  0  0  0  0  0  0
  -26.0643   17.6296  -21.7192 N   0  0  0  0  0  0  0  0  0  0  0  0
  -26.1659   16.4292  -22.3800 C   0  0  0  0  0  0  0  0  0  0  0  0
  -25.4720   16.2535  -23.5986 N   0  0  0  0  0  0  0  0  0  0  0  0
  -25.4435   15.1061  -24.4100 C   0  0  0  0  0  0  0  0  0  0  0  0
  -24.3615   14.9583  -25.2673 C   0  0  0  0  0  0  0  0  0  0  0  0
  -24.2809   13.8670  -26.0790 C   0  0  0  0  0  0  0  0  0  0  0  0
  -25.2435   12.9246  -26.0605 N   0  0  0  0  0  0  0  0  0  0  0  0
  -26.2969   13.0538  -25.2362 C   0  0  0  0  0  0  0  0  0  0  0  0
  -27.5303   11.8155  -25.2316 Cl  0  0  0  0  0  0  0  0  0  0  0  0
  -26.4248   14.1516  -24.3863 C   0  0  0  0  0  0  0  0  0  0  0  0
  -26.9329   15.5346  -21.7691 N   0  0  0  0  0  0  0  0  0  0  0  0
  -29.4212   13.9640  -20.8963 C   0  0  0  0  0  0  0  0  0  0  0  0
  -29.9233   14.4463  -22.1950 C   0  0  0  0  0  0  0  0  0  0  0  0
  -31.2644   15.0748  -22.0797 C   0  0  0  0  0  0  0  0  0  0  0  0
  -32.4529   14.4399  -22.7050 C   0  0  0  0  0  0  0  0  0  0  0  0
  -31.9273   15.7433  -23.2238 C   0  0  0  0  0  0  0  0  0  0  0  0
  -30.1154   12.9256  -20.3542 N   0  0  0  0  0  0  0  0  0  0  0  0
  1  2  1  0
  2  3  1  0
  2  4  1  0
  2  5  1  0
  5  6  1  0
  6  7  1  0
  7  8  2  0
  8  9  1  0
  9 10  2  0
 10 11  1  0
 11 12  2  0
 12 13  1  0
 13 14  2  0
 14 15  1  0
 15 16  1  0
 16 17  1  0
 17 18  2  0
 18 19  1  0
 19 20  2  0
 20 21  1  0
 21 22  1  0
 21 23  2  0
 15 24  2  0
 10 25  1  0
 25 26  1  0
 26 27  1  0
 27 28  1  0
 28 29  1  0
 25 30  2  0
 30  7  1  0
 24 11  1  0
 29 27  1  0
 23 17  1  0
M  END
$$$$
