
     RDKit          3D

 42 48  0  0  0  0  0  0  0  0999 V2000
  -21.0827   40.9463  -18.8365 C   0  0  0  0  0  0  0  0  0  0  0  0
  -20.7304   39.6125  -19.1138 O   0  0  0  0  0  0  0  0  0  0  0  0
  -19.8130   39.3775  -20.1522 C   0  0  0  0  0  0  0  0  0  0  0  0
  -19.1180   40.4217  -20.7303 C   0  0  0  0  0  0  0  0  0  0  0  0
  -18.2021   40.2481  -21.7561 C   0  0  0  0  0  0  0  0  0  0  0  0
  -17.4377   41.3272  -22.3715 C   0  0  2  0  0  0  0  0  0  0  0  0
  -16.9911   42.2802  -21.3281 C   0  0  0  0  0  0  0  0  0  0  0  0
  -15.8066   42.0935  -20.6597 C   0  0  0  0  0  0  0  0  0  0  0  0
  -15.3690   42.9710  -19.6786 C   0  0  0  0  0  0  0  0  0  0  0  0
  -16.1243   44.0519  -19.3590 C   0  0  0  0  0  0  0  0  0  0  0  0
  -17.3194   44.2723  -20.0096 C   0  0  0  0  0  0  0  0  0  0  0  0
  -17.7577   43.3835  -21.0009 C   0  0  0  0  0  0  0  0  0  0  0  0
  -19.0436   43.7331  -21.6446 C   0  0  1  0  0  0  0  0  0  0  0  0
  -19.0328   44.9980  -22.2359 O   0  0  0  0  0  0  0  0  0  0  0  0
  -20.1366   45.7690  -21.9174 C   0  0  2  0  0  0  0  0  0  0  0  0
  -20.9121   46.0443  -23.0650 O   0  0  0  0  0  0  0  0  0  0  0  0
  -21.9077   46.8883  -22.6462 C   0  0  2  0  0  0  0  0  0  0  0  0
  -23.0977   46.9960  -23.5544 C   0  0  0  0  0  0  0  0  0  0  0  0
  -23.9940   47.8692  -22.8928 O   0  0  0  0  0  0  0  0  0  0  0  0
  -23.3968   49.0958  -22.7428 C   0  0  1  0  0  0  0  0  0  0  0  0
  -24.3654   50.0511  -22.0735 C   0  0  0  0  0  0  0  0  0  0  0  0
  -22.2340   49.0831  -21.9675 O   0  0  0  0  0  0  0  0  0  0  0  0
  -21.2993   48.2893  -22.5820 C   0  0  1  0  0  0  0  0  0  0  0  0
  -20.0239   48.2931  -21.8033 C   0  0  2  0  0  0  0  0  0  0  0  0
  -18.9771   48.5589  -22.6916 O   0  0  0  0  0  0  0  0  0  0  0  0
  -19.7482   46.9675  -21.1454 C   0  0  1  0  0  0  0  0  0  0  0  0
  -20.4742   46.9821  -19.9338 O   0  0  0  0  0  0  0  0  0  0  0  0
  -19.4744   42.6919  -22.6631 C   0  0  1  0  0  0  0  0  0  0  0  0
  -20.1546   43.2785  -23.8780 C   0  0  0  0  0  0  0  0  0  0  0  0
  -19.7986   42.3527  -24.9191 O   0  0  0  0  0  0  0  0  0  0  0  0
  -18.5950   41.7067  -24.5922 C   0  0  0  0  0  0  0  0  0  0  0  0
  -18.0194   40.8688  -25.3295 O   0  0  0  0  0  0  0  0  0  0  0  0
  -18.2059   42.1956  -23.3077 C   0  0  2  0  0  0  0  0  0  0  0  0
  -15.4596   44.7578  -18.3544 O   0  0  0  0  0  0  0  0  0  0  0  0
  -14.3641   44.0005  -17.8875 C   0  0  0  0  0  0  0  0  0  0  0  0
  -14.2404   43.0016  -18.8798 O   0  0  0  0  0  0  0  0  0  0  0  0
  -18.0193   38.9513  -22.1769 C   0  0  0  0  0  0  0  0  0  0  0  0
  -18.7127   37.8698  -21.6070 C   0  0  0  0  0  0  0  0  0  0  0  0
  -18.5330   36.5618  -22.0258 O   0  0  0  0  0  0  0  0  0  0  0  0
  -17.6744   36.1079  -23.0190 C   0  0  0  0  0  0  0  0  0  0  0  0
  -19.6061   38.0907  -20.5967 C   0  0  0  0  0  0  0  0  0  0  0  0
  -20.3212   37.0443  -19.9969 O   0  0  0  0  0  0  0  0  0  0  0  0
  1  2  1  0
  2  3  1  0
  3  4  2  0
  4  5  1  0
  6  5  1  1
  6  7  1  0
  7  8  2  0
  8  9  1  0
  9 10  2  0
 10 11  1  0
 11 12  2  0
 12 13  1  0
 13 14  1  6
 15 14  1  6
 15 16  1  0
 16 17  1  0
 17 18  1  6
 18 19  1  0
 19 20  1  0
 20 21  1  1
 20 22  1  0
 23 22  1  1
 23 24  1  0
 24 25  1  6
 24 26  1  0
 26 27  1  1
 13 28  1  0
 28 29  1  6
 29 30  1  0
 30 31  1  0
 31 32  2  0
 33 31  1  6
 10 34  1  0
 34 35  1  0
 35 36  1  0
  5 37  2  0
 37 38  1  0
 38 39  1  0
 39 40  1  0
 38 41  2  0
 41 42  1  0
 41  3  1  0
 33  6  1  0
 12  7  1  0
 26 15  1  0
 33 28  1  0
 36  9  1  0
 23 17  1  0
M  END
$$$$
