
     RDKit          3D

 44 48  0  0  0  0  0  0  0  0999 V2000
  -14.9408   18.0553  -36.4137 C   0  0  0  0  0  0  0  0  0  0  0  0
  -14.6246   17.6477  -37.7595 N   0  0  0  0  0  0  0  0  0  0  0  0
  -15.6532   17.5602  -38.7564 C   0  0  0  0  0  0  0  0  0  0  0  0
  -17.0343   17.8433  -38.2765 C   0  0  0  0  0  0  0  0  0  0  0  0
  -18.0893   17.4942  -39.2076 N   0  0  0  0  0  0  0  0  0  0  0  0
  -19.2229   17.0977  -38.3579 C   0  0  0  0  0  0  0  0  0  0  0  0
  -20.0304   18.3265  -38.0064 C   0  0  0  0  0  0  0  0  0  0  0  0
  -20.8433   18.6565  -39.2300 C   0  0  0  0  0  0  0  0  0  0  0  0
  -21.6567   19.7779  -39.0636 O   0  0  0  0  0  0  0  0  0  0  0  0
  -22.6719   19.7614  -38.1370 C   0  0  0  0  0  0  0  0  0  0  0  0
  -23.7952   20.2666  -38.3865 O   0  0  0  0  0  0  0  0  0  0  0  0
  -22.5457   19.1769  -36.8214 N   0  0  0  0  0  0  0  0  0  0  0  0
  -23.5439   18.3193  -36.2876 C   0  0  0  0  0  0  0  0  0  0  0  0
  -23.8229   17.1041  -36.9046 C   0  0  0  0  0  0  0  0  0  0  0  0
  -24.7731   16.2417  -36.4062 C   0  0  0  0  0  0  0  0  0  0  0  0
  -25.4866   16.5506  -35.2730 C   0  0  0  0  0  0  0  0  0  0  0  0
  -25.2110   17.7520  -34.6632 C   0  0  0  0  0  0  0  0  0  0  0  0
  -24.2450   18.6404  -35.1604 C   0  0  0  0  0  0  0  0  0  0  0  0
  -24.0440   19.8985  -34.4085 C   0  0  0  0  0  0  0  0  0  0  0  0
  -25.0855   20.7639  -34.1781 C   0  0  0  0  0  0  0  0  0  0  0  0
  -24.8731   21.9480  -33.4598 C   0  0  0  0  0  0  0  0  0  0  0  0
  -23.6146   22.2394  -32.9859 C   0  0  0  0  0  0  0  0  0  0  0  0
  -22.5723   21.3654  -33.2213 C   0  0  0  0  0  0  0  0  0  0  0  0
  -22.7777   20.2071  -33.9237 C   0  0  0  0  0  0  0  0  0  0  0  0
  -19.8830   18.7358  -40.3848 C   0  0  0  0  0  0  0  0  0  0  0  0
  -18.4442   18.6326  -40.0319 C   0  0  0  0  0  0  0  0  0  0  0  0
  -13.2972   17.3322  -38.1131 C   0  0  0  0  0  0  0  0  0  0  0  0
  -12.5262   16.7445  -37.2760 O   0  0  0  0  0  0  0  0  0  0  0  0
  -12.7447   17.6488  -39.4159 C   0  0  0  0  0  0  0  0  0  0  0  0
  -12.4635   16.6868  -40.3779 C   0  0  0  0  0  0  0  0  0  0  0  0
  -11.9563   16.9950  -41.5993 C   0  0  0  0  0  0  0  0  0  0  0  0
  -11.6855   18.3179  -41.9596 C   0  0  0  0  0  0  0  0  0  0  0  0
  -11.1405   18.5852  -43.3065 C   0  0  0  0  0  0  0  0  0  0  0  0
   -9.8776   17.9655  -43.5660 N   0  0  0  0  0  0  0  0  0  0  0  0
   -9.6554   17.6647  -44.9268 C   0  0  0  0  0  0  0  0  0  0  0  0
   -9.2993   18.8517  -45.7663 C   0  0  0  0  0  0  0  0  0  0  0  0
   -8.1666   19.6577  -45.1416 C   0  0  0  0  0  0  0  0  0  0  0  0
   -8.0636   20.9400  -45.8841 C   0  0  0  0  0  0  0  0  0  0  0  0
   -7.0679   20.9940  -46.9144 N   0  0  0  0  0  0  0  0  0  0  0  0
   -8.7762   21.9405  -45.6654 O   0  0  0  0  0  0  0  0  0  0  0  0
   -8.6005   20.0065  -43.7179 C   0  0  0  0  0  0  0  0  0  0  0  0
   -8.8101   18.7179  -42.9871 C   0  0  0  0  0  0  0  0  0  0  0  0
  -11.9622   19.2651  -41.0121 C   0  0  0  0  0  0  0  0  0  0  0  0
  -12.4784   18.9556  -39.7684 C   0  0  0  0  0  0  0  0  0  0  0  0
  1  2  1  0
  2  3  1  0
  3  4  1  0
  4  5  1  0
  5  6  1  0
  6  7  1  0
  7  8  1  0
  8  9  1  0
  9 10  1  0
 10 11  2  0
 10 12  1  0
 12 13  1  0
 13 14  2  0
 14 15  1  0
 15 16  2  0
 16 17  1  0
 17 18  2  0
 18 19  1  0
 19 20  2  0
 20 21  1  0
 21 22  2  0
 22 23  1  0
 23 24  2  0
  8 25  1  0
 25 26  1  0
  2 27  1  0
 27 28  2  0
 27 29  1  0
 29 30  2  0
 30 31  1  0
 31 32  2  0
 32 33  1  0
 33 34  1  0
 34 35  1  0
 35 36  1  0
 36 37  1  0
 37 38  1  0
 38 39  1  0
 38 40  2  0
 37 41  1  0
 41 42  1  0
 32 43  1  0
 43 44  2  0
 26  5  1  0
 44 29  1  0
 18 13  1  0
 24 19  1  0
 42 34  1  0
M  END
$$$$
