
     RDKit          3D

 35 39  0  0  0  0  0  0  0  0999 V2000
   -4.5131    8.4337  -50.6269 C   0  0  0  0  0  0  0  0  0  0  0  0
   -4.0626    8.2983  -49.2418 C   0  0  0  0  0  0  0  0  0  0  0  0
   -3.6973    8.1813  -48.0477 C   0  0  0  0  0  0  0  0  0  0  0  0
   -3.2763    8.0402  -46.6851 C   0  0  0  0  0  0  0  0  0  0  0  0
   -3.7392    8.8186  -45.8163 O   0  0  0  0  0  0  0  0  0  0  0  0
   -2.3658    7.0462  -46.3524 N   0  0  0  0  0  0  0  0  0  0  0  0
   -1.9384    5.9778  -47.2600 C   0  0  0  0  0  0  0  0  0  0  0  0
   -0.5602    5.5743  -46.8672 C   0  0  0  0  0  0  0  0  0  0  0  0
   -0.2495    6.4949  -45.6548 C   0  0  0  0  0  0  0  0  0  0  0  0
   -1.6285    6.7713  -45.1566 C   0  0  1  0  0  0  0  0  0  0  0  0
   -1.8092    7.6808  -44.0469 C   0  0  0  0  0  0  0  0  0  0  0  0
   -1.3414    8.9677  -44.0736 N   0  0  0  0  0  0  0  0  0  0  0  0
   -1.6868    9.6281  -42.9670 C   0  0  0  0  0  0  0  0  0  0  0  0
   -1.3513   11.0477  -42.7087 C   0  0  0  0  0  0  0  0  0  0  0  0
   -1.3135   11.5703  -41.4712 C   0  0  0  0  0  0  0  0  0  0  0  0
   -1.0261   12.9421  -41.3252 C   0  0  0  0  0  0  0  0  0  0  0  0
   -0.7824   13.7591  -42.3904 C   0  0  0  0  0  0  0  0  0  0  0  0
   -0.5074   15.1816  -42.1978 C   0  0  0  0  0  0  0  0  0  0  0  0
   -0.8638   15.8064  -41.1632 O   0  0  0  0  0  0  0  0  0  0  0  0
    0.1852   15.8994  -43.1988 N   0  0  0  0  0  0  0  0  0  0  0  0
    0.4877   17.2905  -43.0934 C   0  0  0  0  0  0  0  0  0  0  0  0
   -0.0221   17.9818  -41.9921 C   0  0  0  0  0  0  0  0  0  0  0  0
    0.2331   19.3231  -41.8598 C   0  0  0  0  0  0  0  0  0  0  0  0
    0.9920   19.9747  -42.8251 C   0  0  0  0  0  0  0  0  0  0  0  0
    1.4730   19.2272  -43.9003 C   0  0  0  0  0  0  0  0  0  0  0  0
    1.2197   17.9184  -44.0189 N   0  0  0  0  0  0  0  0  0  0  0  0
   -0.8237   13.2004  -43.6464 C   0  0  0  0  0  0  0  0  0  0  0  0
   -1.1032   11.8642  -43.8226 C   0  0  0  0  0  0  0  0  0  0  0  0
   -2.3999    8.7567  -42.1906 C   0  0  0  0  0  0  0  0  0  0  0  0
   -2.9939    8.9345  -40.9697 C   0  0  0  0  0  0  0  0  0  0  0  0
   -3.0154   10.1462  -40.2281 N   0  0  0  0  0  0  0  0  0  0  0  0
   -3.6721    7.8857  -40.3962 N   0  0  0  0  0  0  0  0  0  0  0  0
   -3.7189    6.7348  -41.0558 C   0  0  0  0  0  0  0  0  0  0  0  0
   -3.1120    6.5834  -42.2917 C   0  0  0  0  0  0  0  0  0  0  0  0
   -2.4453    7.5956  -42.8803 N   0  0  0  0  0  0  0  0  0  0  0  0
  1  2  1  0
  2  3  3  0
  3  4  1  0
  4  5  2  0
  4  6  1  0
  6  7  1  0
  7  8  1  0
  8  9  1  0
  9 10  1  0
 10 11  1  1
 11 12  2  0
 12 13  1  0
 13 14  1  0
 14 15  2  0
 15 16  1  0
 16 17  2  0
 17 18  1  0
 18 19  2  0
 18 20  1  0
 20 21  1  0
 21 22  2  0
 22 23  1  0
 23 24  2  0
 24 25  1  0
 25 26  2  0
 17 27  1  0
 27 28  2  0
 13 29  2  0
 29 30  1  0
 30 31  1  0
 30 32  2  0
 32 33  1  0
 33 34  2  0
 34 35  1  0
 10  6  1  0
 35 11  1  0
 28 14  1  0
 35 29  1  0
 26 21  1  0
M  END
$$$$
