
     RDKit          3D

 23 24  0  0  0  0  0  0  0  0999 V2000
  -22.8924   38.1456  -27.4320 C   0  0  0  0  0  0  0  0  0  0  0  0
  -21.8849   38.7206  -26.4899 C   0  0  0  0  0  0  0  0  0  0  0  0
  -22.2335   39.1252  -25.2206 C   0  0  0  0  0  0  0  0  0  0  0  0
  -21.2889   39.6626  -24.3422 C   0  0  0  0  0  0  0  0  0  0  0  0
  -19.9703   39.8084  -24.7139 C   0  0  0  0  0  0  0  0  0  0  0  0
  -18.7377   40.4791  -23.6621 S   0  0  0  0  0  6  0  0  0  0  0  0
  -19.4402   41.0796  -22.4908 O   0  0  0  0  0  0  0  0  0  0  0  0
  -18.1033   41.6425  -24.4142 O   0  0  0  0  0  0  0  0  0  0  0  0
  -17.5592   39.3303  -23.2059 N   0  0  0  0  0  0  0  0  0  0  0  0
  -18.1763   38.2803  -22.3970 C   0  0  1  0  0  0  0  0  0  0  0  0
  -17.5541   36.9368  -22.7388 C   0  0  0  0  0  0  0  0  0  0  0  0
  -18.2403   35.8104  -22.0899 C   0  0  0  0  0  0  0  0  0  0  0  0
  -19.5005   35.4444  -22.5102 C   0  0  0  0  0  0  0  0  0  0  0  0
  -20.2005   34.3999  -21.9470 C   0  0  0  0  0  0  0  0  0  0  0  0
  -19.6089   33.6945  -20.9190 C   0  0  0  0  0  0  0  0  0  0  0  0
  -18.3383   34.0610  -20.4930 C   0  0  0  0  0  0  0  0  0  0  0  0
  -17.6525   35.1093  -21.0684 C   0  0  0  0  0  0  0  0  0  0  0  0
  -18.0642   38.6027  -20.9563 C   0  0  0  0  0  0  0  0  0  0  0  0
  -17.0177   39.1090  -20.5663 O   0  0  0  0  0  0  0  0  0  0  0  0
  -19.0889   38.3801  -19.9200 C   0  0  0  0  0  0  0  0  0  0  0  0
  -20.2743   39.6536  -19.7439 Cl  0  0  0  0  0  0  0  0  0  0  0  0
  -19.6299   39.3968  -25.9966 C   0  0  0  0  0  0  0  0  0  0  0  0
  -20.5648   38.8670  -26.8603 C   0  0  0  0  0  0  0  0  0  0  0  0
  1  2  1  0
  2  3  2  0
  3  4  1  0
  4  5  2  0
  5  6  1  0
  6  7  2  0
  6  8  2  0
  6  9  1  0
  9 10  1  0
 10 11  1  1
 11 12  1  0
 12 13  2  0
 13 14  1  0
 14 15  2  0
 15 16  1  0
 16 17  2  0
 10 18  1  0
 18 19  2  0
 18 20  1  0
 20 21  1  0
  5 22  1  0
 22 23  2  0
 23  2  1  0
 17 12  1  0
M  END
$$$$
