
     RDKit          3D

 46 51  0  0  0  0  0  0  0  0999 V2000
  -16.8267   21.8540  -31.2297 C   0  0  0  0  0  0  0  0  0  0  0  0
  -18.1346   21.7304  -30.7103 O   0  0  0  0  0  0  0  0  0  0  0  0
  -18.8753   20.6170  -31.0206 C   0  0  0  0  0  0  0  0  0  0  0  0
  -18.3646   19.3495  -30.7897 C   0  0  0  0  0  0  0  0  0  0  0  0
  -19.0939   18.2191  -31.0944 C   0  0  0  0  0  0  0  0  0  0  0  0
  -18.6036   16.9646  -30.8622 C   0  0  0  0  0  0  0  0  0  0  0  0
  -17.3345   16.7242  -30.3340 N   0  0  0  0  0  0  0  0  0  0  0  0
  -16.6387   15.4543  -30.4829 C   0  0  0  0  0  0  0  0  0  0  0  0
  -17.3110   14.3793  -29.6992 C   0  0  0  0  0  0  0  0  0  0  0  0
  -16.7149   14.1323  -28.3330 C   0  0  0  0  0  0  0  0  0  0  0  0
  -15.3128   13.8127  -28.3936 N   0  0  0  0  0  0  0  0  0  0  0  0
  -15.0019   12.4524  -28.0447 C   0  0  0  0  0  0  0  0  0  0  0  0
  -13.5414   12.1585  -27.9699 C   0  0  0  0  0  0  0  0  0  0  0  0
  -13.0504   11.2153  -29.0252 C   0  0  0  0  0  0  0  0  0  0  0  0
  -11.5387   11.2040  -28.9907 C   0  0  0  0  0  0  0  0  0  0  0  0
  -10.9948   11.6769  -27.6645 C   0  0  0  0  0  0  0  0  0  0  0  0
  -11.8137   11.1569  -26.4877 C   0  0  0  0  0  0  0  0  0  0  0  0
  -13.2770   11.5058  -26.6216 C   0  0  0  0  0  0  0  0  0  0  0  0
  -14.7289   14.1615  -29.6756 C   0  0  0  0  0  0  0  0  0  0  0  0
  -15.1933   15.5254  -30.1389 C   0  0  0  0  0  0  0  0  0  0  0  0
  -19.3844   15.8953  -31.1783 N   0  0  0  0  0  0  0  0  0  0  0  0
  -20.6068   16.0481  -31.7064 C   0  0  0  0  0  0  0  0  0  0  0  0
  -21.4673   14.9658  -32.0356 N   0  0  0  0  0  0  0  0  0  0  0  0
  -20.8113   13.8445  -32.7007 C   0  0  0  0  0  0  0  0  0  0  0  0
  -20.9011   12.5885  -31.8583 C   0  0  0  0  0  0  0  0  0  0  0  0
  -22.2399   11.9267  -31.9824 C   0  0  0  0  0  0  0  0  0  0  0  0
  -23.2138   12.7144  -31.2623 N   0  0  0  0  0  0  0  0  0  0  0  0
  -24.3235   11.9605  -30.7706 C   0  0  0  0  0  0  0  0  0  0  0  0
  -23.7722   10.7295  -30.0676 C   0  0  0  0  0  0  0  0  0  0  0  0
  -25.1325   11.4286  -31.9601 C   0  0  0  0  0  0  0  0  0  0  0  0
  -23.6001   13.8304  -32.0792 C   0  0  0  0  0  0  0  0  0  0  0  0
  -22.8533   15.0964  -31.6942 C   0  0  0  0  0  0  0  0  0  0  0  0
  -21.0686   17.2896  -31.9274 N   0  0  0  0  0  0  0  0  0  0  0  0
  -20.3717   18.4047  -31.6471 C   0  0  0  0  0  0  0  0  0  0  0  0
  -20.8708   19.6661  -31.8731 C   0  0  0  0  0  0  0  0  0  0  0  0
  -20.1374   20.7876  -31.5658 C   0  0  0  0  0  0  0  0  0  0  0  0
  -20.6136   22.0789  -31.7796 O   0  0  0  0  0  0  0  0  0  0  0  0
  -21.3054   22.3803  -32.9827 C   0  0  0  0  0  0  0  0  0  0  0  0
  -21.8218   23.7908  -32.8801 C   0  0  0  0  0  0  0  0  0  0  0  0
  -21.7219   24.5233  -34.1996 C   0  0  0  0  0  0  0  0  0  0  0  0
  -22.9323   25.1089  -34.6258 N   0  0  0  0  0  0  0  0  0  0  0  0
  -22.9100   26.0200  -35.6953 C   0  0  0  0  0  0  0  0  0  0  0  0
  -23.1256   27.4596  -35.3121 C   0  0  0  0  0  0  0  0  0  0  0  0
  -24.4257   27.5493  -34.5451 C   0  0  0  0  0  0  0  0  0  0  0  0
  -24.3012   26.6856  -33.3287 C   0  0  0  0  0  0  0  0  0  0  0  0
  -23.9452   25.2613  -33.6527 C   0  0  0  0  0  0  0  0  0  0  0  0
  1  2  1  0
  2  3  1  0
  3  4  2  0
  4  5  1  0
  5  6  2  0
  6  7  1  0
  7  8  1  0
  8  9  1  0
  9 10  1  0
 10 11  1  0
 11 12  1  0
 12 13  1  0
 13 14  1  0
 14 15  1  0
 15 16  1  0
 16 17  1  0
 17 18  1  0
 11 19  1  0
 19 20  1  0
  6 21  1  0
 21 22  2  0
 22 23  1  0
 23 24  1  0
 24 25  1  0
 25 26  1  0
 26 27  1  0
 27 28  1  0
 28 29  1  0
 28 30  1  0
 27 31  1  0
 31 32  1  0
 22 33  1  0
 33 34  2  0
 34 35  1  0
 35 36  2  0
 36 37  1  0
 37 38  1  0
 38 39  1  0
 39 40  1  0
 40 41  1  0
 41 42  1  0
 42 43  1  0
 43 44  1  0
 44 45  1  0
 45 46  1  0
 36  3  1  0
 46 41  1  0
 34  5  1  0
 20  8  1  0
 32 23  1  0
 18 13  1  0
M  END
$$$$
