
     RDKit          3D

 27 29  0  0  0  0  0  0  0  0999 V2000
  -23.0090   44.8504  -26.0481 C   0  0  0  0  0  0  0  0  0  0  0  0
  -22.7107   45.0750  -24.5907 C   0  0  0  0  0  0  0  0  0  0  0  0
  -22.5704   43.8698  -23.8317 N   0  0  0  0  0  0  0  0  0  0  0  0
  -21.2957   43.2484  -23.7651 C   0  0  0  0  0  0  0  0  0  0  0  0
  -20.2823   43.9436  -23.9683 O   0  0  0  0  0  0  0  0  0  0  0  0
  -21.1282   41.8290  -23.4684 C   0  0  0  0  0  0  0  0  0  0  0  0
  -21.9647   40.8528  -23.8426 N   0  0  0  0  0  0  0  0  0  0  0  0
  -21.4944   39.7414  -23.4041 O   0  0  0  0  0  0  0  0  0  0  0  0
  -20.3717   39.9065  -22.7446 C   0  0  0  0  0  0  0  0  0  0  0  0
  -19.6318   38.8078  -22.1442 C   0  0  0  0  0  0  0  0  0  0  0  0
  -19.0857   37.7615  -22.8212 C   0  0  0  0  0  0  0  0  0  0  0  0
  -18.3914   36.7447  -22.1935 C   0  0  0  0  0  0  0  0  0  0  0  0
  -17.7049   35.4190  -23.0958 Cl  0  0  0  0  0  0  0  0  0  0  0  0
  -18.2317   36.7684  -20.8238 C   0  0  0  0  0  0  0  0  0  0  0  0
  -17.5322   35.7420  -20.1991 O   0  0  0  0  0  0  0  0  0  0  0  0
  -18.7835   37.8274  -20.1306 C   0  0  0  0  0  0  0  0  0  0  0  0
  -19.4759   38.8409  -20.7606 C   0  0  0  0  0  0  0  0  0  0  0  0
  -20.0145   39.8882  -20.0197 O   0  0  0  0  0  0  0  0  0  0  0  0
  -20.1078   41.2540  -22.7694 C   0  0  0  0  0  0  0  0  0  0  0  0
  -18.9461   41.8882  -22.1505 C   0  0  0  0  0  0  0  0  0  0  0  0
  -17.6776   41.4770  -22.4633 C   0  0  0  0  0  0  0  0  0  0  0  0
  -16.5530   42.0669  -21.8869 C   0  0  0  0  0  0  0  0  0  0  0  0
  -16.7020   43.0890  -20.9792 C   0  0  0  0  0  0  0  0  0  0  0  0
  -15.6478   43.7168  -20.3719 O   0  0  0  0  0  0  0  0  0  0  0  0
  -15.3273   45.0736  -20.4530 C   0  0  0  0  0  0  0  0  0  0  0  0
  -17.9755   43.5139  -20.6544 C   0  0  0  0  0  0  0  0  0  0  0  0
  -19.0646   42.9230  -21.2301 C   0  0  0  0  0  0  0  0  0  0  0  0
  1  2  1  0
  2  3  1  0
  3  4  1  0
  4  5  2  0
  4  6  1  0
  6  7  2  0
  7  8  1  0
  8  9  1  0
  9 10  1  0
 10 11  2  0
 11 12  1  0
 12 13  1  0
 12 14  2  0
 14 15  1  0
 14 16  1  0
 16 17  2  0
 17 18  1  0
  9 19  2  0
 19 20  1  0
 20 21  2  0
 21 22  1  0
 22 23  2  0
 23 24  1  0
 24 25  1  0
 23 26  1  0
 26 27  2  0
 19  6  1  0
 27 20  1  0
 17 10  1  0
M  END
$$$$
