
     RDKit          3D

 34 38  0  0  0  0  0  0  0  0999 V2000
  -20.5216   42.9829  -25.2990 O   0  0  0  0  0  0  0  0  0  0  0  0
  -19.7453   42.4316  -26.1580 C   0  0  0  0  0  0  0  0  0  0  0  0
  -18.4716   42.0167  -25.6781 N   0  0  0  0  0  0  0  0  0  0  0  0
  -18.2723   41.6003  -24.3022 C   0  0  0  0  0  0  0  0  0  0  0  0
  -18.7114   40.1829  -24.0923 C   0  0  0  0  0  0  0  0  0  0  0  0
  -18.7440   39.9512  -22.5710 C   0  0  0  0  0  0  0  0  0  0  0  0
  -19.2273   38.6179  -22.2772 N   0  0  0  0  0  0  0  0  0  0  0  0
  -19.6264   38.3348  -20.9295 C   0  0  0  0  0  0  0  0  0  0  0  0
  -19.6087   39.2844  -19.9914 N   0  0  0  0  0  0  0  0  0  0  0  0
  -19.9649   39.0403  -18.6945 C   0  0  0  0  0  0  0  0  0  0  0  0
  -19.8969   40.1386  -17.8245 N   0  0  0  0  0  0  0  0  0  0  0  0
  -19.5437   41.4611  -18.1792 C   0  0  0  0  0  0  0  0  0  0  0  0
  -20.2500   42.5308  -17.6281 C   0  0  0  0  0  0  0  0  0  0  0  0
  -19.8852   43.7995  -17.9797 C   0  0  0  0  0  0  0  0  0  0  0  0
  -18.8491   44.0042  -18.8515 C   0  0  0  0  0  0  0  0  0  0  0  0
  -18.1265   42.9673  -19.4156 C   0  0  0  0  0  0  0  0  0  0  0  0
  -17.0053   43.2433  -20.3331 C   0  0  0  0  0  0  0  0  0  0  0  0
  -16.0458   44.1638  -19.7510 N   0  0  0  0  0  0  0  0  0  0  0  0
  -15.2274   43.5163  -18.7785 C   0  0  0  0  0  0  0  0  0  0  0  0
  -13.7950   44.0217  -18.8051 C   0  0  0  0  0  0  0  0  0  0  0  0
  -13.1909   43.8376  -20.0473 O   0  0  0  0  0  0  0  0  0  0  0  0
  -14.1177   43.8508  -21.0935 C   0  0  0  0  0  0  0  0  0  0  0  0
  -15.2143   44.8223  -20.7114 C   0  0  0  0  0  0  0  0  0  0  0  0
  -18.5024   41.6966  -19.0567 C   0  0  0  0  0  0  0  0  0  0  0  0
  -20.3390   37.7984  -18.3927 N   0  0  0  0  0  0  0  0  0  0  0  0
  -20.3796   36.7831  -19.3019 C   0  0  0  0  0  0  0  0  0  0  0  0
  -20.0226   37.0447  -20.5792 C   0  0  0  0  0  0  0  0  0  0  0  0
  -20.0396   36.0130  -21.6622 C   0  0  0  0  0  0  0  0  0  0  0  0
  -20.1671   34.5787  -21.2864 C   0  0  0  0  0  0  0  0  0  0  0  0
  -21.3811   35.2609  -21.7966 C   0  0  0  0  0  0  0  0  0  0  0  0
  -20.2213   42.2745  -27.5434 C   0  0  0  0  0  0  0  0  0  0  0  0
  -20.8151   43.4640  -28.2206 C   0  0  0  0  0  0  0  0  0  0  0  0
  -22.0982   42.7104  -28.4354 C   0  0  0  0  0  0  0  0  0  0  0  0
  -21.5820   41.6073  -27.5572 C   0  0  0  0  0  0  0  0  0  0  0  0
  1  2  2  0
  2  3  1  0
  3  4  1  0
  4  5  1  0
  5  6  1  0
  6  7  1  0
  7  8  1  0
  8  9  2  0
  9 10  1  0
 10 11  1  0
 11 12  1  0
 12 13  2  0
 13 14  1  0
 14 15  2  0
 15 16  1  0
 16 17  1  0
 17 18  1  0
 18 19  1  0
 19 20  1  0
 20 21  1  0
 21 22  1  0
 22 23  1  0
 16 24  2  0
 10 25  2  0
 25 26  1  0
 26 27  2  0
 27 28  1  0
 28 29  1  0
 29 30  1  0
  2 31  1  0
 31 32  1  0
 32 33  1  0
 33 34  1  0
 27  8  1  0
 30 28  1  0
 34 31  1  0
 24 12  1  0
 23 18  1  0
M  END
$$$$
