
     RDKit          3D

 23 26  0  0  0  0  0  0  0  0999 V2000
  -23.5851   29.4310  -26.1395 C   0  0  0  0  0  0  0  0  0  0  0  0
  -23.8000   29.3846  -27.6418 C   0  0  0  0  0  0  0  0  0  0  0  0
  -24.8214   30.4006  -28.0717 C   0  0  0  0  0  0  0  0  0  0  0  0
  -22.4826   29.6275  -28.3496 C   0  0  0  0  0  0  0  0  0  0  0  0
  -24.2699   28.0195  -27.9924 C   0  0  0  0  0  0  0  0  0  0  0  0
  -25.4073   27.6622  -28.6522 N   0  0  0  0  0  0  0  0  0  0  0  0
  -25.4655   26.3357  -28.7697 C   0  0  0  0  0  0  0  0  0  0  0  0
  -26.3635   25.4488  -29.3294 C   0  0  0  0  0  0  0  0  0  0  0  0
  -27.4948   25.9525  -29.9305 C   0  0  0  0  0  0  0  0  0  0  0  0
  -28.4023   25.0850  -30.4943 C   0  0  0  0  0  0  0  0  0  0  0  0
  -28.2172   23.7608  -30.4755 N   0  0  0  0  0  0  0  0  0  0  0  0
  -27.1019   23.2234  -29.8854 C   0  0  0  0  0  0  0  0  0  0  0  0
  -26.9923   21.9864  -29.9033 O   0  0  0  0  0  0  0  0  0  0  0  0
  -26.1778   24.0561  -29.3146 C   0  0  0  0  0  0  0  0  0  0  0  0
  -25.0407   23.5513  -28.7102 C   0  0  0  0  0  0  0  0  0  0  0  0
  -24.7919   22.2108  -28.6569 C   0  0  0  0  0  0  0  0  0  0  0  0
  -23.6135   21.7859  -28.0242 C   0  0  0  0  0  0  0  0  0  0  0  0
  -23.4048   20.4561  -27.9926 F   0  0  0  0  0  0  0  0  0  0  0  0
  -22.7312   22.6703  -27.4735 C   0  0  0  0  0  0  0  0  0  0  0  0
  -22.9939   24.0254  -27.5338 C   0  0  0  0  0  0  0  0  0  0  0  0
  -24.1515   24.4718  -28.1534 C   0  0  0  0  0  0  0  0  0  0  0  0
  -24.3388   25.8356  -28.1709 C   0  0  0  0  0  0  0  0  0  0  0  0
  -23.6076   26.8806  -27.6945 N   0  0  0  0  0  0  0  0  0  0  0  0
  1  2  1  0
  2  3  1  0
  2  4  1  0
  2  5  1  0
  5  6  2  0
  6  7  1  0
  7  8  2  0
  8  9  1  0
  9 10  2  0
 10 11  1  0
 11 12  1  0
 12 13  2  0
 12 14  1  0
 14 15  2  0
 15 16  1  0
 16 17  2  0
 17 18  1  0
 17 19  1  0
 19 20  2  0
 20 21  1  0
 21 22  2  0
 22 23  1  0
 23  5  1  0
 22  7  1  0
 14  8  1  0
 21 15  1  0
M  END
$$$$
