
     RDKit          3D

 19 19  0  0  0  0  0  0  0  0999 V2000
  -20.5347   35.6462  -23.4827 C   0  0  0  0  0  0  0  0  0  0  0  0
  -19.3267   35.2279  -22.7381 C   0  0  0  0  0  0  0  0  0  0  0  0
  -18.6002   34.1558  -23.2577 C   0  0  0  0  0  0  0  0  0  0  0  0
  -17.4714   33.6898  -22.6420 C   0  0  0  0  0  0  0  0  0  0  0  0
  -16.7498   32.5509  -23.2486 C   0  0  0  0  0  0  0  0  0  0  0  0
  -17.3060   31.2542  -22.7016 C   0  0  0  0  0  0  0  0  0  0  0  0
  -16.9057   32.6144  -24.7487 C   0  0  0  0  0  0  0  0  0  0  0  0
  -15.2757   32.5729  -22.9031 C   0  0  0  0  0  0  0  0  0  0  0  0
  -17.0510   34.3047  -21.4781 C   0  0  0  0  0  0  0  0  0  0  0  0
  -17.7645   35.3648  -20.9595 C   0  0  0  0  0  0  0  0  0  0  0  0
  -17.3100   36.0232  -19.7082 C   0  0  0  0  0  0  0  0  0  0  0  0
  -18.9041   35.8403  -21.5749 C   0  0  0  0  0  0  0  0  0  0  0  0
  -19.6669   36.9712  -21.0294 C   0  0  0  0  0  0  0  0  0  0  0  0
  -19.3952   38.2433  -21.8144 C   0  0  0  0  0  0  0  0  0  0  0  0
  -18.6023   38.3432  -22.8189 N   0  0  0  0  0  0  0  0  0  0  0  0
  -18.5477   39.6786  -23.3609 C   0  0  0  0  0  0  0  0  0  0  0  0
  -19.3325   40.5162  -22.3874 C   0  0  0  0  0  0  0  0  0  0  0  0
  -19.9639   39.5125  -21.5701 N   0  0  0  0  0  0  0  0  0  0  0  0
  -18.3432   36.1209  -22.3745 Cl  0  0  0  0  0  0  0  0  0  0  0  0
  1  2  1  0
  2  3  2  0
  3  4  1  0
  4  5  1  0
  5  6  1  0
  5  7  1  0
  5  8  1  0
  4  9  2  0
  9 10  1  0
 10 11  1  0
 10 12  2  0
 12 13  1  0
 13 14  1  0
 14 15  2  0
 15 16  1  0
 16 17  1  0
 17 18  1  0
 12  2  1  0
 18 14  1  0
M  END
$$$$
