
     RDKit          3D

 24 26  0  0  0  0  0  0  0  0999 V2000
  -21.3612   35.7381  -26.1099 C   0  0  0  0  0  0  0  0  0  0  0  0
  -22.1879   36.9675  -26.2620 C   0  0  0  0  0  0  0  0  0  0  0  0
  -21.6180   38.1282  -25.7514 O   0  0  0  0  0  0  0  0  0  0  0  0
  -21.5299   38.3234  -24.3824 C   0  0  0  0  0  0  0  0  0  0  0  0
  -22.6145   38.4623  -23.7610 O   0  0  0  0  0  0  0  0  0  0  0  0
  -20.2121   38.3669  -23.6790 C   0  0  0  0  0  0  0  0  0  0  0  0
  -19.1921   39.1846  -24.3898 C   0  0  0  0  0  0  0  0  0  0  0  0
  -19.3071   40.6681  -24.2186 C   0  0  0  0  0  0  0  0  0  0  0  0
  -19.9665   40.9990  -22.8913 C   0  0  0  0  0  0  0  0  0  0  0  0
  -19.6415   39.9365  -22.0075 N   0  0  0  0  0  0  0  0  0  0  0  0
  -18.6620   39.9688  -20.9729 C   0  0  0  0  0  0  0  0  0  0  0  0
  -18.4652   38.8681  -20.3336 O   0  0  0  0  0  0  0  0  0  0  0  0
  -17.9301   41.1524  -20.6513 C   0  0  0  0  0  0  0  0  0  0  0  0
  -17.4069   41.7915  -21.6781 O   0  0  0  0  0  0  0  0  0  0  0  0
  -17.6320   41.8035  -19.4140 C   0  0  0  0  0  0  0  0  0  0  0  0
  -18.2334   41.5250  -18.1735 C   0  0  0  0  0  0  0  0  0  0  0  0
  -17.8222   42.4021  -17.2635 N   0  0  0  0  0  0  0  0  0  0  0  0
  -16.9652   43.2720  -17.8094 C   0  0  0  0  0  0  0  0  0  0  0  0
  -16.2750   44.3219  -17.2443 C   0  0  0  0  0  0  0  0  0  0  0  0
  -15.4099   45.0619  -18.0039 C   0  0  0  0  0  0  0  0  0  0  0  0
  -15.2505   44.7339  -19.3220 C   0  0  0  0  0  0  0  0  0  0  0  0
  -15.9583   43.6652  -19.8848 C   0  0  0  0  0  0  0  0  0  0  0  0
  -16.8454   42.8938  -19.1570 C   0  0  0  0  0  0  0  0  0  0  0  0
  -20.3856   38.7078  -22.2150 C   0  0  0  0  0  0  0  0  0  0  0  0
  1  2  1  0
  2  3  1  0
  3  4  1  0
  4  5  2  0
  4  6  1  0
  6  7  1  0
  7  8  1  0
  8  9  1  0
  9 10  1  0
 10 11  1  0
 11 12  2  0
 11 13  1  0
 13 14  2  0
 13 15  1  0
 15 16  2  0
 16 17  1  0
 17 18  1  0
 18 19  2  0
 19 20  1  0
 20 21  2  0
 21 22  1  0
 22 23  2  0
 10 24  1  0
 24  6  1  0
 23 15  1  0
 23 18  1  0
M  END
$$$$
