
     RDKit          3D

 27 28  0  0  0  0  0  0  0  0999 V2000
  -18.1547   41.8067  -21.4654 Cl  0  0  0  0  0  0  0  0  0  0  0  0
  -18.1584   41.8042  -21.4691 Cl  0  0  0  0  0  0  0  0  0  0  0  0
  -17.1850   38.3125  -19.6632 N   0  0  0  0  0  0  0  0  0  0  0  0
  -17.8910   39.5315  -19.8068 C   0  0  0  0  0  0  0  0  0  0  0  0
  -18.6851   39.8838  -18.7637 N   0  0  0  0  0  0  0  0  0  0  0  0
  -19.3830   41.0294  -18.8357 C   0  0  0  0  0  0  0  0  0  0  0  0
  -19.2787   41.8246  -19.9681 C   0  0  0  0  0  0  0  0  0  0  0  0
  -18.4781   41.4832  -21.0356 C   0  0  0  0  0  0  0  0  0  0  0  0
  -18.3516   42.3047  -22.2161 C   0  0  0  0  0  0  0  0  0  0  0  0
  -17.6362   43.4749  -22.3000 C   0  0  0  0  0  0  0  0  0  0  0  0
  -16.8769   44.0964  -21.2280 C   0  0  0  0  0  0  0  0  0  0  0  0
  -17.4185   44.6691  -20.1024 C   0  0  0  0  0  0  0  0  0  0  0  0
  -16.6430   45.2397  -19.1160 C   0  0  0  0  0  0  0  0  0  0  0  0
  -15.2669   45.2611  -19.2178 C   0  0  0  0  0  0  0  0  0  0  0  0
  -14.4936   45.8290  -18.2361 F   0  0  0  0  0  0  0  0  0  0  0  0
  -14.7053   44.6926  -20.3381 C   0  0  0  0  0  0  0  0  0  0  0  0
  -15.4917   44.1247  -21.3181 C   0  0  0  0  0  0  0  0  0  0  0  0
  -17.7666   43.9483  -23.5766 N   0  0  0  0  0  0  0  0  0  0  0  0
  -18.5457   43.0718  -24.2341 C   0  0  0  0  0  0  0  0  0  0  0  0
  -18.9111   42.0612  -23.4144 N   0  0  0  0  0  0  0  0  0  0  0  0
  -19.7318   40.9449  -23.7402 C   0  0  0  0  0  0  0  0  0  0  0  0
  -20.7660   40.5751  -22.7150 C   0  0  0  0  0  0  0  0  0  0  0  0
  -21.7968   39.7044  -23.4293 C   0  0  0  0  0  0  0  0  0  0  0  0
  -21.3685   39.2719  -24.7913 C   0  0  0  0  0  0  0  0  0  0  0  0
  -19.9512   38.8291  -24.9120 C   0  0  0  0  0  0  0  0  0  0  0  0
  -18.9895   39.6956  -24.1253 C   0  0  0  0  0  0  0  0  0  0  0  0
  -17.7957   40.3065  -20.8986 N   0  0  0  0  0  0  0  0  0  0  0  0
  3  4  1  0
  4  5  2  0
  5  6  1  0
  6  7  2  0
  7  8  1  0
  8  9  1  0
  9 10  2  0
 10 11  1  0
 11 12  2  0
 12 13  1  0
 13 14  2  0
 14 15  1  0
 14 16  1  0
 16 17  2  0
 10 18  1  0
 18 19  2  0
 19 20  1  0
 20 21  1  0
 21 22  1  0
 22 23  1  0
 23 24  1  0
 24 25  1  0
 25 26  1  0
  8 27  2  0
 27  4  1  0
 20  9  1  0
 26 21  1  0
 17 11  1  0
M  END
$$$$
