
     RDKit          3D

 33 36  0  0  0  0  0  0  0  0999 V2000
  -16.0911   17.4584  -33.6304 C   0  0  0  0  0  0  0  0  0  0  0  0
  -16.2545   16.6564  -32.3956 C   0  0  0  0  0  0  0  0  0  0  0  0
  -15.5461   15.6734  -32.0400 N   0  0  0  0  0  0  0  0  0  0  0  0
  -15.9923   15.1533  -30.8047 N   0  0  0  0  0  0  0  0  0  0  0  0
  -15.3930   14.0567  -30.1608 C   0  0  0  0  0  0  0  0  0  0  0  0
  -14.0294   14.0109  -30.0259 C   0  0  0  0  0  0  0  0  0  0  0  0
  -13.4293   12.9252  -29.3770 C   0  0  0  0  0  0  0  0  0  0  0  0
  -14.2117   11.8991  -28.8727 C   0  0  0  0  0  0  0  0  0  0  0  0
  -13.6040   10.7161  -28.1634 C   0  0  0  0  0  0  0  0  0  0  0  0
  -15.5657   11.9388  -29.0043 C   0  0  0  0  0  0  0  0  0  0  0  0
  -16.4059   10.8362  -28.4660 C   0  0  0  0  0  0  0  0  0  0  0  0
  -16.1334   13.0246  -29.6507 C   0  0  0  0  0  0  0  0  0  0  0  0
  -17.1000   15.9142  -30.3658 C   0  0  0  0  0  0  0  0  0  0  0  0
  -17.7614   15.7608  -29.3250 O   0  0  0  0  0  0  0  0  0  0  0  0
  -17.3102   16.9327  -31.4021 C   0  0  0  0  0  0  0  0  0  0  0  0
  -18.1949   17.8305  -31.4115 N   0  0  0  0  0  0  0  0  0  0  0  0
  -19.4057   17.6561  -30.7543 N   0  0  0  0  0  0  0  0  0  0  0  0
  -20.3643   18.7235  -30.8685 C   0  0  0  0  0  0  0  0  0  0  0  0
  -20.2722   19.8797  -30.1313 C   0  0  0  0  0  0  0  0  0  0  0  0
  -21.2306   20.8554  -30.2606 C   0  0  0  0  0  0  0  0  0  0  0  0
  -22.2806   20.6697  -31.1290 C   0  0  0  0  0  0  0  0  0  0  0  0
  -22.4104   19.5073  -31.8980 C   0  0  0  0  0  0  0  0  0  0  0  0
  -23.5381   19.4129  -32.8066 C   0  0  0  0  0  0  0  0  0  0  0  0
  -24.8009   19.0398  -32.3459 C   0  0  0  0  0  0  0  0  0  0  0  0
  -25.8951   18.9654  -33.1791 C   0  0  0  0  0  0  0  0  0  0  0  0
  -25.7447   19.2696  -34.5169 C   0  0  0  0  0  0  0  0  0  0  0  0
  -24.5027   19.6440  -35.0059 C   0  0  0  0  0  0  0  0  0  0  0  0
  -24.3705   19.9641  -36.4175 C   0  0  0  0  0  0  0  0  0  0  0  0
  -25.1029   19.3854  -37.2848 O   0  0  0  0  0  0  0  0  0  0  0  0
  -23.4504   20.9000  -36.8364 O   0  0  0  0  0  0  0  0  0  0  0  0
  -23.4276   19.7069  -34.1377 C   0  0  0  0  0  0  0  0  0  0  0  0
  -21.4414   18.5461  -31.7529 C   0  0  0  0  0  0  0  0  0  0  0  0
  -21.5328   17.3852  -32.4901 O   0  0  0  0  0  0  0  0  0  0  0  0
  1  2  1  0
  2  3  2  0
  3  4  1  0
  4  5  1  0
  5  6  2  0
  6  7  1  0
  7  8  2  0
  8  9  1  0
  8 10  1  0
 10 11  1  0
 10 12  2  0
  4 13  1  0
 13 14  2  0
 13 15  1  0
 15 16  2  0
 16 17  1  0
 17 18  1  0
 18 19  2  0
 19 20  1  0
 20 21  2  0
 21 22  1  0
 22 23  1  0
 23 24  2  0
 24 25  1  0
 25 26  2  0
 26 27  1  0
 27 28  1  0
 28 29  2  0
 28 30  1  0
 27 31  2  0
 22 32  2  0
 32 33  1  0
 15  2  1  0
 32 18  1  0
 12  5  1  0
 31 23  1  0
M  END
$$$$
