
     RDKit          3D

 20 21  0  0  0  0  0  0  0  0999 V2000
  -16.5823   20.3629  -38.9078 N   0  0  0  0  0  0  0  0  0  0  0  0
  -17.6706   19.5264  -38.5126 C   0  0  0  0  0  0  0  0  0  0  0  0
  -18.8691   19.7590  -39.1464 C   0  0  0  0  0  0  0  0  0  0  0  0
  -19.0038   20.8204  -40.1721 C   0  0  0  0  0  0  0  0  0  0  0  0
  -18.3772   20.4427  -41.4512 C   0  0  0  0  0  0  0  0  0  0  0  0
  -18.2053   19.2547  -41.7819 O   0  0  0  0  0  0  0  0  0  0  0  0
  -17.9617   21.4523  -42.3212 O   0  0  0  0  0  0  0  0  0  0  0  0
  -19.9729   18.9922  -38.8222 C   0  0  0  0  0  0  0  0  0  0  0  0
  -19.8518   18.0089  -37.8701 C   0  0  0  0  0  0  0  0  0  0  0  0
  -18.6161   17.7985  -37.2440 C   0  0  0  0  0  0  0  0  0  0  0  0
  -17.5187   18.5389  -37.5445 C   0  0  0  0  0  0  0  0  0  0  0  0
  -16.2332   18.3364  -36.9596 C   0  0  0  0  0  0  0  0  0  0  0  0
  -15.2488   19.0721  -37.4060 O   0  0  0  0  0  0  0  0  0  0  0  0
  -15.8426   17.4111  -35.9144 C   0  0  0  0  0  0  0  0  0  0  0  0
  -15.2464   17.8031  -34.7551 C   0  0  0  0  0  0  0  0  0  0  0  0
  -14.9063   16.8851  -33.7423 C   0  0  0  0  0  0  0  0  0  0  0  0
  -15.1701   15.5434  -33.8975 C   0  0  0  0  0  0  0  0  0  0  0  0
  -14.7102   14.2821  -32.5315 Br  0  0  0  0  0  0  0  0  0  0  0  0
  -15.7701   15.1329  -35.0619 C   0  0  0  0  0  0  0  0  0  0  0  0
  -16.1025   16.0353  -36.0527 C   0  0  0  0  0  0  0  0  0  0  0  0
  1  2  1  0
  2  3  2  0
  3  4  1  0
  4  5  1  0
  5  6  2  0
  5  7  1  0
  3  8  1  0
  8  9  2  0
  9 10  1  0
 10 11  2  0
 11 12  1  0
 12 13  2  0
 12 14  1  0
 14 15  2  0
 15 16  1  0
 16 17  2  0
 17 18  1  0
 17 19  1  0
 19 20  2  0
 11  2  1  0
 20 14  1  0
M  END
$$$$
