
     RDKit          3D

 19 21  0  0  0  0  0  0  0  0999 V2000
  -18.3411   36.1745  -24.4042 O   0  0  0  0  0  0  0  0  0  0  0  0
  -18.8463   37.0503  -23.4742 C   0  0  0  0  0  0  0  0  0  0  0  0
  -19.2979   38.3242  -24.1350 C   0  0  0  0  0  0  0  0  0  0  0  0
  -18.8289   39.4469  -23.2452 C   0  0  0  0  0  0  0  0  0  0  0  0
  -17.6916   40.1543  -23.3711 N   0  0  0  0  0  0  0  0  0  0  0  0
  -17.6039   41.0766  -22.3974 C   0  0  0  0  0  0  0  0  0  0  0  0
  -16.6769   42.0540  -22.0458 C   0  0  0  0  0  0  0  0  0  0  0  0
  -16.8580   42.8780  -20.9645 C   0  0  0  0  0  0  0  0  0  0  0  0
  -17.9867   42.7576  -20.1806 C   0  0  0  0  0  0  0  0  0  0  0  0
  -18.9125   41.7766  -20.5373 C   0  0  0  0  0  0  0  0  0  0  0  0
  -18.7240   40.9507  -21.6268 C   0  0  0  0  0  0  0  0  0  0  0  0
  -19.4516   39.9529  -22.1641 N   0  0  0  0  0  0  0  0  0  0  0  0
  -19.8895   36.4556  -22.6028 C   0  0  0  0  0  0  0  0  0  0  0  0
  -21.1503   36.1979  -23.1034 C   0  0  0  0  0  0  0  0  0  0  0  0
  -22.1112   35.6447  -22.2824 C   0  0  0  0  0  0  0  0  0  0  0  0
  -21.8536   35.3312  -20.9461 C   0  0  0  0  0  0  0  0  0  0  0  0
  -20.5918   35.5910  -20.4514 C   0  0  0  0  0  0  0  0  0  0  0  0
  -19.6356   36.1438  -21.2760 C   0  0  0  0  0  0  0  0  0  0  0  0
  -18.0138   36.4876  -20.6733 Cl  0  0  0  0  0  0  0  0  0  0  0  0
  1  2  1  0
  2  3  1  0
  3  4  1  0
  4  5  2  0
  5  6  1  0
  6  7  2  0
  7  8  1  0
  8  9  2  0
  9 10  1  0
 10 11  2  0
 11 12  1  0
  2 13  1  0
 13 14  2  0
 14 15  1  0
 15 16  2  0
 16 17  1  0
 17 18  2  0
 18 19  1  0
 12  4  1  0
 18 13  1  0
 11  6  1  0
M  END
$$$$
