
     RDKit          3D

 32 36  0  0  0  0  0  0  0  0999 V2000
  -22.4456   36.2198  -22.7059 C   0  0  0  0  0  0  0  0  0  0  0  0
  -21.4370   36.0702  -23.7325 N   0  0  0  0  0  0  0  0  0  0  0  0
  -21.8419   35.4520  -24.9751 C   0  0  0  0  0  0  0  0  0  0  0  0
  -20.1301   36.5043  -23.5070 C   0  0  0  0  0  0  0  0  0  0  0  0
  -19.2141   36.1961  -24.3532 O   0  0  0  0  0  0  0  0  0  0  0  0
  -19.6534   37.2960  -22.3867 C   0  0  0  0  0  0  0  0  0  0  0  0
  -18.9984   36.7071  -21.3091 C   0  0  0  0  0  0  0  0  0  0  0  0
  -18.6931   37.7080  -20.4495 C   0  0  0  0  0  0  0  0  0  0  0  0
  -18.0417   37.7177  -19.2087 C   0  0  0  0  0  0  0  0  0  0  0  0
  -17.9021   38.8992  -18.6114 N   0  0  0  0  0  0  0  0  0  0  0  0
  -18.3506   40.0612  -19.1371 C   0  0  0  0  0  0  0  0  0  0  0  0
  -18.1626   41.3002  -18.4276 N   0  0  0  0  0  0  0  0  0  0  0  0
  -17.9124   42.4812  -19.1595 C   0  0  0  0  0  0  0  0  0  0  0  0
  -18.7925   42.9103  -20.1115 C   0  0  0  0  0  0  0  0  0  0  0  0
  -18.5476   44.0802  -20.8341 C   0  0  0  0  0  0  0  0  0  0  0  0
  -17.4053   44.8122  -20.5858 C   0  0  0  0  0  0  0  0  0  0  0  0
  -17.1245   45.9970  -21.3079 N   0  0  0  0  0  0  0  0  0  0  0  0
  -15.8218   46.6621  -21.2785 C   0  0  0  0  0  0  0  0  0  0  0  0
  -16.0748   48.1574  -21.2087 C   0  0  0  0  0  0  0  0  0  0  0  0
  -17.3893   48.4802  -20.7065 N   0  0  0  0  0  0  0  0  0  0  0  0
  -18.4441   48.0039  -21.5842 C   0  0  0  0  0  0  0  0  0  0  0  0
  -18.1113   46.6645  -22.1691 C   0  0  0  0  0  0  0  0  0  0  0  0
  -16.5511   44.3368  -19.6165 C   0  0  0  0  0  0  0  0  0  0  0  0
  -16.8079   43.1888  -18.9192 N   0  0  0  0  0  0  0  0  0  0  0  0
  -18.9715   40.0264  -20.3272 N   0  0  0  0  0  0  0  0  0  0  0  0
  -19.1597   38.8658  -21.0110 C   0  0  0  0  0  0  0  0  0  0  0  0
  -19.7604   38.6180  -22.2197 N   0  0  0  0  0  0  0  0  0  0  0  0
  -20.3314   39.6605  -23.0042 C   0  0  0  0  0  0  0  0  0  0  0  0
  -21.3503   40.5162  -22.2715 C   0  0  0  0  0  0  0  0  0  0  0  0
  -21.4401   41.7076  -23.1814 C   0  0  0  0  0  0  0  0  0  0  0  0
  -20.0014   41.9746  -23.5414 C   0  0  0  0  0  0  0  0  0  0  0  0
  -19.4300   40.5616  -23.7429 C   0  0  0  0  0  0  0  0  0  0  0  0
  1  2  1  0
  2  3  1  0
  2  4  1  0
  4  5  2  0
  4  6  1  0
  6  7  2  0
  7  8  1  0
  8  9  2  0
  9 10  1  0
 10 11  2  0
 11 12  1  0
 12 13  1  0
 13 14  2  0
 14 15  1  0
 15 16  2  0
 16 17  1  0
 17 18  1  0
 18 19  1  0
 19 20  1  0
 20 21  1  0
 21 22  1  0
 16 23  1  0
 23 24  2  0
 11 25  1  0
 25 26  2  0
 26 27  1  0
 27 28  1  0
 28 29  1  0
 29 30  1  0
 30 31  1  0
 31 32  1  0
 27  6  1  0
 32 28  1  0
 26  8  1  0
 24 13  1  0
 22 17  1  0
M  END
$$$$
