
     RDKit          3D

 23 26  0  0  0  0  0  0  0  0999 V2000
  -31.3573   26.0967  -36.3881 O   0  0  0  0  0  0  0  0  0  0  0  0
  -30.1584   25.7244  -36.9882 C   0  0  0  0  0  0  0  0  0  0  0  0
  -30.1549   25.3243  -38.3156 C   0  0  0  0  0  0  0  0  0  0  0  0
  -28.9891   24.9560  -38.9194 C   0  0  0  0  0  0  0  0  0  0  0  0
  -27.8189   24.9839  -38.2055 C   0  0  0  0  0  0  0  0  0  0  0  0
  -26.5268   24.6914  -38.4934 N   0  0  0  0  0  0  0  0  0  0  0  0
  -25.7271   24.8829  -37.4340 C   0  0  0  0  0  0  0  0  0  0  0  0
  -24.2700   24.6728  -37.3650 C   0  0  0  0  0  0  0  0  0  0  0  0
  -23.5248   24.6492  -38.5216 C   0  0  0  0  0  0  0  0  0  0  0  0
  -22.1415   24.4499  -38.4575 C   0  0  0  0  0  0  0  0  0  0  0  0
  -21.5036   24.2749  -37.2488 C   0  0  0  0  0  0  0  0  0  0  0  0
  -22.2538   24.2991  -36.0950 C   0  0  0  0  0  0  0  0  0  0  0  0
  -23.6226   24.4971  -36.1656 C   0  0  0  0  0  0  0  0  0  0  0  0
  -26.5255   25.3093  -36.4398 N   0  0  0  0  0  0  0  0  0  0  0  0
  -27.7969   25.3836  -36.8664 C   0  0  0  0  0  0  0  0  0  0  0  0
  -28.9780   25.7554  -36.2586 C   0  0  0  0  0  0  0  0  0  0  0  0
  -29.0000   26.1899  -34.8373 C   0  0  0  0  0  0  0  0  0  0  0  0
  -29.0775   25.0595  -33.9733 N   0  0  0  0  0  0  0  0  0  0  0  0
  -29.2492   23.7920  -34.6018 C   0  0  0  0  0  0  0  0  0  0  0  0
  -28.5526   22.6658  -33.8689 C   0  0  0  0  0  0  0  0  0  0  0  0
  -28.7516   22.7010  -32.3897 C   0  0  0  0  0  0  0  0  0  0  0  0
  -28.6635   24.1074  -31.8408 C   0  0  0  0  0  0  0  0  0  0  0  0
  -28.0698   24.9719  -32.9636 C   0  0  0  0  0  0  0  0  0  0  0  0
  1  2  1  0
  2  3  2  0
  3  4  1  0
  4  5  2  0
  5  6  1  0
  6  7  1  0
  7  8  1  0
  8  9  2  0
  9 10  1  0
 10 11  2  0
 11 12  1  0
 12 13  2  0
  7 14  2  0
 14 15  1  0
 15 16  2  0
 16 17  1  0
 17 18  1  0
 18 19  1  0
 19 20  1  0
 20 21  1  0
 21 22  1  0
 22 23  1  0
 16  2  1  0
 23 18  1  0
 15  5  1  0
 13  8  1  0
M  END
$$$$
