
     RDKit          3D

  5  4  0  0  0  0  0  0  0  0999 V2000
  -18.1965   38.4112  -22.0260 N   0  0  0  0  0  0  0  0  0  0  0  0
  -18.0174   36.8123  -21.4308 S   0  0  0  0  0  6  0  0  0  0  0  0
  -19.5051   35.9623  -21.6490 N   0  0  0  0  0  0  0  0  0  0  0  0
  -17.5958   36.7768  -19.9897 O   0  0  0  0  0  0  0  0  0  0  0  0
  -16.9716   36.1004  -22.2598 O   0  0  0  0  0  0  0  0  0  0  0  0
  1  2  1  0
  2  3  1  0
  2  4  2  0
  2  5  2  0
M  END
$$$$
