
     RDKit          3D

 32 34  0  0  0  0  0  0  0  0999 V2000
  -14.9899   17.8496  -34.5550 C   0  0  0  0  0  0  0  0  0  0  0  0
  -16.4889   17.5308  -34.7437 C   0  0  0  0  0  0  0  0  0  0  0  0
  -16.9665   17.3453  -33.2695 C   0  0  0  0  0  0  0  0  0  0  0  0
  -17.1816   18.7194  -35.2471 C   0  0  0  0  0  0  0  0  0  0  0  0
  -16.5508   16.2714  -35.4608 C   0  0  0  0  0  0  0  0  0  0  0  0
  -17.0844   15.1843  -34.7435 C   0  0  0  0  0  0  0  0  0  0  0  0
  -17.1414   13.9419  -35.3239 C   0  0  0  0  0  0  0  0  0  0  0  0
  -16.6819   13.7394  -36.6069 C   0  0  0  0  0  0  0  0  0  0  0  0
  -16.1635   14.7859  -37.3127 C   0  0  0  0  0  0  0  0  0  0  0  0
  -16.0917   16.0929  -36.7346 C   0  0  0  0  0  0  0  0  0  0  0  0
  -15.5588   17.0778  -37.4869 O   0  0  0  0  0  0  0  0  0  0  0  0
  -14.3819   17.1941  -38.1487 C   0  0  0  0  0  0  0  0  0  0  0  0
  -13.3147   16.4101  -37.9773 N   0  0  0  0  0  0  0  0  0  0  0  0
  -12.1465   16.5115  -38.6221 C   0  0  0  0  0  0  0  0  0  0  0  0
  -11.9809   17.5025  -39.5605 C   0  0  0  0  0  0  0  0  0  0  0  0
  -13.0712   18.3508  -39.7767 C   0  0  0  0  0  0  0  0  0  0  0  0
  -14.2531   18.2212  -39.1010 C   0  0  0  0  0  0  0  0  0  0  0  0
  -15.3759   19.0531  -39.2876 N   0  0  0  0  0  0  0  0  0  0  0  0
  -16.1426   19.2040  -40.4837 C   0  0  0  0  0  0  0  0  0  0  0  0
  -15.6215   18.8577  -41.5459 O   0  0  0  0  0  0  0  0  0  0  0  0
  -17.4509   19.7278  -40.4753 N   0  0  0  0  0  0  0  0  0  0  0  0
  -18.0481   20.4590  -41.5200 C   0  0  0  0  0  0  0  0  0  0  0  0
  -18.9222   21.5050  -41.1949 C   0  0  0  0  0  0  0  0  0  0  0  0
  -19.5548   22.2772  -42.1261 C   0  0  0  0  0  0  0  0  0  0  0  0
  -19.3488   22.0468  -43.4582 C   0  0  0  0  0  0  0  0  0  0  0  0
  -19.9599   22.7940  -44.4634 O   0  0  0  0  0  0  0  0  0  0  0  0
  -19.3447   23.9672  -44.9058 C   0  0  0  0  0  0  0  0  0  0  0  0
  -18.1767   23.7404  -45.6127 F   0  0  0  0  0  0  0  0  0  0  0  0
  -20.1928   24.6741  -45.7376 F   0  0  0  0  0  0  0  0  0  0  0  0
  -19.0197   24.7695  -43.8304 F   0  0  0  0  0  0  0  0  0  0  0  0
  -18.4988   21.0303  -43.8242 C   0  0  0  0  0  0  0  0  0  0  0  0
  -17.8621   20.2527  -42.8521 C   0  0  0  0  0  0  0  0  0  0  0  0
  1  2  1  0
  2  3  1  0
  2  4  1  0
  2  5  1  0
  5  6  2  0
  6  7  1  0
  7  8  2  0
  8  9  1  0
  9 10  2  0
 10 11  1  0
 11 12  1  0
 12 13  2  0
 13 14  1  0
 14 15  2  0
 15 16  1  0
 16 17  2  0
 17 18  1  0
 18 19  1  0
 19 20  2  0
 19 21  1  0
 21 22  1  0
 22 23  2  0
 23 24  1  0
 24 25  2  0
 25 26  1  0
 26 27  1  0
 27 28  1  0
 27 29  1  0
 27 30  1  0
 25 31  1  0
 31 32  2  0
 10  5  1  0
 17 12  1  0
 32 22  1  0
M  END
$$$$
