
     RDKit          3D

 14 15  0  0  0  0  0  0  0  0999 V2000
  -21.5405   38.6086  -19.9900 O   0  0  0  0  0  0  0  0  0  0  0  0
  -21.6188   38.2825  -21.2006 C   0  0  0  0  0  0  0  0  0  0  0  0
  -22.7030   38.7306  -21.9288 O   0  0  0  0  0  0  0  0  0  0  0  0
  -20.5943   37.4423  -21.8584 C   0  0  0  0  0  0  0  0  0  0  0  0
  -20.8748   36.1468  -22.2411 C   0  0  0  0  0  0  0  0  0  0  0  0
  -22.1600   35.6491  -21.9883 O   0  0  0  0  0  0  0  0  0  0  0  0
  -19.8963   35.3916  -22.8519 C   0  0  0  0  0  0  0  0  0  0  0  0
  -18.6281   35.8995  -23.0951 C   0  0  0  0  0  0  0  0  0  0  0  0
  -18.3401   37.1983  -22.7137 C   0  0  0  0  0  0  0  0  0  0  0  0
  -17.0655   37.7229  -22.9530 C   0  0  0  0  0  0  0  0  0  0  0  0
  -16.7935   39.0207  -22.5665 C   0  0  0  0  0  0  0  0  0  0  0  0
  -17.7951   39.7457  -21.9590 C   0  0  0  0  0  0  0  0  0  0  0  0
  -19.0564   39.2490  -21.7140 C   0  0  0  0  0  0  0  0  0  0  0  0
  -19.3302   37.9398  -22.1040 C   0  0  0  0  0  0  0  0  0  0  0  0
  1  2  2  0
  2  3  1  0
  2  4  1  0
  4  5  2  0
  5  6  1  0
  5  7  1  0
  7  8  2  0
  8  9  1  0
  9 10  2  0
 10 11  1  0
 11 12  2  0
 12 13  1  0
 13 14  2  0
 14  4  1  0
 14  9  1  0
M  END
$$$$
