
     RDKit          3D

 12  9  0  0  0  0  0  0  0  0999 V2000
  -22.5533   15.5197  -20.8405 Cl  0  0  0  0  0  0  0  0  0  0  0  0
  -22.5527   15.5190  -20.8376 Cl  0  0  0  0  0  0  0  0  0  0  0  0
  -23.7990   17.4289  -25.3154 N   0  0  0  0  0  0  0  0  0  0  0  0
  -24.5032   16.6147  -24.3539 C   0  0  0  0  0  0  0  0  0  0  0  0
  -23.6924   16.6661  -23.0548 C   0  0  0  0  0  0  0  0  0  0  0  0
  -22.3357   16.1103  -23.3979 C   0  0  0  0  0  0  0  0  0  0  0  0
  -21.3643   16.0737  -22.2707 C   0  0  0  0  0  0  0  0  0  0  0  0
  -21.9354   15.1974  -21.1702 C   0  0  0  0  0  0  0  0  0  0  0  0
  -21.0018   15.1045  -19.9963 C   0  0  0  0  0  0  0  0  0  0  0  0
  -21.6147   14.2195  -18.9478 C   0  0  0  0  0  0  0  0  0  0  0  0
  -22.9221   14.7622  -18.4657 C   0  0  0  0  0  0  0  0  0  0  0  0
  -22.6953   16.0882  -17.9032 N   0  0  0  0  0  0  0  0  0  0  0  0
  3  4  1  0
  4  5  1  0
  5  6  1  0
  6  7  1  0
  7  8  1  0
  8  9  1  0
  9 10  1  0
 10 11  1  0
 11 12  1  0
M  END
$$$$
