
     RDKit          3D

 14 14  0  0  0  0  0  0  0  0999 V2000
  -17.2470   36.4056  -22.1437 C   0  0  0  0  0  0  0  0  0  0  0  0
  -18.6633   36.7413  -21.6156 C   0  0  2  0  0  0  0  0  0  0  0  0
  -19.5063   35.6050  -22.1893 C   0  0  0  0  0  0  0  0  0  0  0  0
  -21.2274   35.7045  -21.6563 S   0  0  0  0  0  0  0  0  0  0  0  0
  -19.1689   37.9940  -22.1869 C   0  0  0  0  0  0  0  0  0  0  0  0
  -19.0996   38.0190  -23.4956 O   0  0  0  0  0  0  0  0  0  0  0  0
  -19.6926   39.1152  -21.5625 N   0  0  0  0  0  0  0  0  0  0  0  0
  -20.3062   38.9957  -20.1981 C   0  0  0  0  0  0  0  0  0  0  0  0
  -19.6066   40.1630  -19.4861 C   0  0  0  0  0  0  0  0  0  0  0  0
  -18.9940   41.0171  -20.6056 C   0  0  0  0  0  0  0  0  0  0  0  0
  -19.8707   40.4857  -21.7781 C   0  0  1  0  0  0  0  0  0  0  0  0
  -19.6084   41.1684  -23.0012 C   0  0  0  0  0  0  0  0  0  0  0  0
  -20.6476   41.2314  -23.7885 O   0  0  0  0  0  0  0  0  0  0  0  0
  -18.5128   41.7698  -23.5348 O   0  0  0  0  0  0  0  0  0  0  0  0
  2  1  1  6
  2  3  1  0
  3  4  1  0
  2  5  1  0
  5  6  2  0
  5  7  1  0
  7  8  1  0
  8  9  1  0
  9 10  1  0
 10 11  1  0
 11 12  1  6
 12 13  2  0
 12 14  1  0
 11  7  1  0
M  END
$$$$
