
     RDKit          3D

 38 40  0  0  0  0  0  0  0  0999 V2000
  -19.7120   46.3218  -22.0110 C   0  0  0  0  0  0  0  0  0  0  0  0
  -20.3991   44.9884  -22.2867 C   0  0  0  0  0  0  0  0  0  0  0  0
  -21.5700   45.1437  -23.1793 C   0  0  0  0  0  0  0  0  0  0  0  0
  -22.2789   43.8895  -23.4869 C   0  0  0  0  0  0  0  0  0  0  0  0
  -21.5683   42.8218  -24.1201 N   0  0  0  0  0  0  0  0  0  0  0  0
  -21.4299   42.8226  -25.6045 C   0  0  0  0  0  0  0  0  0  0  0  0
  -20.1153   43.5058  -25.8860 C   0  0  0  0  0  0  0  0  0  0  0  0
  -19.7920   43.6197  -27.3522 C   0  0  0  0  0  0  0  0  0  0  0  0
  -20.8510   44.4243  -28.0318 C   0  0  0  0  0  0  0  0  0  0  0  0
  -20.9738   41.7271  -23.4559 C   0  0  0  0  0  0  0  0  0  0  0  0
  -20.3718   40.8513  -24.1832 O   0  0  0  0  0  0  0  0  0  0  0  0
  -20.9629   41.4597  -22.0160 C   0  0  0  0  0  0  0  0  0  0  0  0
  -20.3257   40.2762  -21.5899 N   0  0  0  0  0  0  0  0  0  0  0  0
  -20.9223   39.0237  -21.9186 C   0  0  0  0  0  0  0  0  0  0  0  0
  -19.7815   38.0160  -22.0000 C   0  0  2  0  0  0  0  0  0  0  0  0
  -20.1105   36.7228  -21.3606 C   0  0  0  0  0  0  0  0  0  0  0  0
  -20.3845   36.5762  -20.0313 C   0  0  0  0  0  0  0  0  0  0  0  0
  -20.6805   35.3308  -19.5176 C   0  0  0  0  0  0  0  0  0  0  0  0
  -20.7059   34.2135  -20.3309 C   0  0  0  0  0  0  0  0  0  0  0  0
  -20.4320   34.3465  -21.6717 C   0  0  0  0  0  0  0  0  0  0  0  0
  -20.1396   35.5954  -22.1634 C   0  0  0  0  0  0  0  0  0  0  0  0
  -20.5223   33.0938  -22.2579 O   0  0  0  0  0  0  0  0  0  0  0  0
  -21.1648   32.2001  -21.3505 C   0  0  0  0  0  0  0  0  0  0  0  0
  -20.9643   32.8542  -20.1085 O   0  0  0  0  0  0  0  0  0  0  0  0
  -18.6823   38.7474  -21.2607 C   0  0  1  0  0  0  0  0  0  0  0  0
  -17.3348   38.2765  -21.6550 C   0  0  0  0  0  0  0  0  0  0  0  0
  -16.5951   37.8080  -20.7536 O   0  0  0  0  0  0  0  0  0  0  0  0
  -16.8538   38.3224  -22.9388 O   0  0  0  0  0  0  0  0  0  0  0  0
  -18.9230   40.1764  -21.7925 C   0  0  2  0  0  0  0  0  0  0  0  0
  -18.0910   41.1622  -21.1158 C   0  0  0  0  0  0  0  0  0  0  0  0
  -18.3261   41.5599  -19.8338 C   0  0  0  0  0  0  0  0  0  0  0  0
  -17.5092   42.5010  -19.1924 C   0  0  0  0  0  0  0  0  0  0  0  0
  -16.4412   43.0297  -19.8920 C   0  0  0  0  0  0  0  0  0  0  0  0
  -15.5862   43.9737  -19.3088 O   0  0  0  0  0  0  0  0  0  0  0  0
  -14.4858   44.5072  -20.0443 C   0  0  0  0  0  0  0  0  0  0  0  0
  -16.1820   42.6450  -21.1881 C   0  0  0  0  0  0  0  0  0  0  0  0
  -17.0101   41.7158  -21.7841 C   0  0  0  0  0  0  0  0  0  0  0  0
  -19.8462   41.5166  -22.8710 Cl  0  0  0  0  0  0  0  0  0  0  0  0
  1  2  1  0
  2  3  1  0
  3  4  1  0
  4  5  1  0
  5  6  1  0
  6  7  1  0
  7  8  1  0
  8  9  1  0
  5 10  1  0
 10 11  2  0
 10 12  1  0
 12 13  1  0
 13 14  1  0
 14 15  1  0
 15 16  1  1
 16 17  2  0
 17 18  1  0
 18 19  2  0
 19 20  1  0
 20 21  2  0
 20 22  1  0
 22 23  1  0
 23 24  1  0
 15 25  1  0
 25 26  1  6
 26 27  2  0
 26 28  1  0
 25 29  1  0
 29 30  1  1
 30 31  2  0
 31 32  1  0
 32 33  2  0
 33 34  1  0
 34 35  1  0
 33 36  1  0
 36 37  2  0
 29 13  1  0
 37 30  1  0
 21 16  1  0
 24 19  1  0
M  END
$$$$
