
     RDKit          3D

 30 32  0  0  0  0  0  0  0  0999 V2000
  -20.4995   17.4439  -31.5334 C   0  0  0  0  0  0  0  0  0  0  0  0
  -19.3911   17.1893  -32.5174 C   0  0  2  0  0  0  0  0  0  0  0  0
  -19.8200   16.1521  -33.5634 C   0  0  0  0  0  0  0  0  0  0  0  0
  -18.8267   16.0677  -34.5612 N   0  0  0  0  0  0  0  0  0  0  0  0
  -18.9319   17.1537  -35.4987 C   0  0  0  0  0  0  0  0  0  0  0  0
  -17.9322   17.1257  -36.5849 C   0  0  0  0  0  0  0  0  0  0  0  0
  -16.8723   18.0000  -36.7076 C   0  0  0  0  0  0  0  0  0  0  0  0
  -15.9732   17.9266  -37.7492 C   0  0  0  0  0  0  0  0  0  0  0  0
  -16.0964   16.9679  -38.7205 C   0  0  0  0  0  0  0  0  0  0  0  0
  -15.2122   16.8926  -39.7485 F   0  0  0  0  0  0  0  0  0  0  0  0
  -17.1358   16.0846  -38.6296 C   0  0  0  0  0  0  0  0  0  0  0  0
  -18.0327   16.1653  -37.5820 C   0  0  0  0  0  0  0  0  0  0  0  0
  -17.4820   15.8858  -34.1608 C   0  0  0  0  0  0  0  0  0  0  0  0
  -17.0780   16.4254  -32.8378 C   0  0  0  0  0  0  0  0  0  0  0  0
  -18.1810   16.6765  -31.9474 N   0  0  0  0  0  0  0  0  0  0  0  0
  -18.0582   16.4224  -30.5732 C   0  0  0  0  0  0  0  0  0  0  0  0
  -19.0213   16.2968  -29.7637 O   0  0  0  0  0  0  0  0  0  0  0  0
  -16.6802   16.2826  -29.9848 C   0  0  0  0  0  0  0  0  0  0  0  0
  -16.7117   16.1626  -28.5976 O   0  0  0  0  0  0  0  0  0  0  0  0
  -16.3284   14.9860  -27.9896 C   0  0  0  0  0  0  0  0  0  0  0  0
  -16.2069   13.8489  -28.7533 C   0  0  0  0  0  0  0  0  0  0  0  0
  -15.8239   12.6299  -28.1997 C   0  0  0  0  0  0  0  0  0  0  0  0
  -15.5693   12.5999  -26.8561 C   0  0  0  0  0  0  0  0  0  0  0  0
  -15.0846   11.0864  -26.1191 Cl  0  0  0  0  0  0  0  0  0  0  0  0
  -15.6920   13.7490  -26.0841 C   0  0  0  0  0  0  0  0  0  0  0  0
  -16.0698   14.9440  -26.6390 C   0  0  0  0  0  0  0  0  0  0  0  0
  -16.1776   16.0833  -25.7984 N   0  0  0  0  0  0  0  0  0  0  0  0
  -15.2382   16.2731  -24.7476 C   0  0  0  0  0  0  0  0  0  0  0  0
  -14.9778   17.5788  -24.2292 N   0  0  0  0  0  0  0  0  0  0  0  0
  -14.6494   15.2575  -24.2946 O   0  0  0  0  0  0  0  0  0  0  0  0
  2  1  1  1
  2  3  1  0
  3  4  1  0
  4  5  1  0
  5  6  1  0
  6  7  2  0
  7  8  1  0
  8  9  2  0
  9 10  1  0
  9 11  1  0
 11 12  2  0
  4 13  1  0
 13 14  1  0
 14 15  1  0
 15 16  1  0
 16 17  2  0
 16 18  1  0
 18 19  1  0
 19 20  1  0
 20 21  2  0
 21 22  1  0
 22 23  2  0
 23 24  1  0
 23 25  1  0
 25 26  2  0
 26 27  1  0
 27 28  1  0
 28 29  1  0
 28 30  2  0
 15  2  1  0
 26 20  1  0
 12  6  1  0
M  END
$$$$
