
     RDKit          3D

 17 19  0  0  0  0  0  0  0  0999 V2000
  -12.2866   42.9632  -18.4160 C   0  0  0  0  0  0  0  0  0  0  0  0
  -13.5423   42.7010  -19.1877 C   0  0  0  0  0  0  0  0  0  0  0  0
  -14.7471   43.1127  -18.6515 C   0  0  0  0  0  0  0  0  0  0  0  0
  -15.9046   42.8710  -19.3626 C   0  0  0  0  0  0  0  0  0  0  0  0
  -15.9285   42.2372  -20.5873 C   0  0  0  0  0  0  0  0  0  0  0  0
  -17.0961   41.9836  -21.3214 N   0  0  0  0  0  0  0  0  0  0  0  0
  -18.5857   43.0666  -21.2412 S   0  0  0  0  0  0  0  0  0  0  0  0
  -19.5319   42.1525  -22.3482 C   0  0  0  0  0  0  0  0  0  0  0  0
  -20.8271   42.3585  -22.8103 C   0  0  0  0  0  0  0  0  0  0  0  0
  -21.3789   41.4663  -23.7154 C   0  0  0  0  0  0  0  0  0  0  0  0
  -20.5826   40.4121  -24.1019 C   0  0  0  0  0  0  0  0  0  0  0  0
  -19.3085   40.2299  -23.6326 C   0  0  0  0  0  0  0  0  0  0  0  0
  -18.7262   41.1291  -22.7080 C   0  0  0  0  0  0  0  0  0  0  0  0
  -17.4902   41.0898  -22.1534 C   0  0  0  0  0  0  0  0  0  0  0  0
  -16.6542   40.1198  -22.4602 O   0  0  0  0  0  0  0  0  0  0  0  0
  -14.6865   41.8370  -21.0936 C   0  0  0  0  0  0  0  0  0  0  0  0
  -13.5156   42.0632  -20.4094 C   0  0  0  0  0  0  0  0  0  0  0  0
  1  2  1  0
  2  3  2  0
  3  4  1  0
  4  5  2  0
  5  6  1  0
  6  7  1  0
  7  8  1  0
  8  9  2  0
  9 10  1  0
 10 11  2  0
 11 12  1  0
 12 13  2  0
 13 14  1  0
 14 15  2  0
  5 16  1  0
 16 17  2  0
 17  2  1  0
 14  6  1  0
 13  8  1  0
M  END
$$$$
