
     RDKit          3D

 12 13  0  0  0  0  0  0  0  0999 V2000
  -12.6799   13.0075  -29.7345 C   0  0  0  0  0  0  0  0  0  0  0  0
  -14.0630   13.5679  -29.6285 C   0  0  0  0  0  0  0  0  0  0  0  0
  -14.9850   13.5356  -28.6188 C   0  0  0  0  0  0  0  0  0  0  0  0
  -16.1596   14.1401  -28.8262 C   0  0  0  0  0  0  0  0  0  0  0  0
  -16.3981   14.7471  -29.9891 C   0  0  0  0  0  0  0  0  0  0  0  0
  -17.6086   15.4841  -30.4668 C   0  0  0  0  0  0  0  0  0  0  0  0
  -18.8342   15.3844  -29.7625 C   0  0  0  0  0  0  0  0  0  0  0  0
  -19.9137   16.4214  -30.7219 S   0  0  0  0  0  0  0  0  0  0  0  0
  -18.5948   16.8712  -31.9608 C   0  0  0  0  0  0  0  0  0  0  0  0
  -18.9939   17.7466  -33.0066 N   0  0  0  0  0  0  0  0  0  0  0  0
  -17.6668   16.2525  -31.5191 N   0  0  0  0  0  0  0  0  0  0  0  0
  -14.9337   14.4981  -30.8978 S   0  0  0  0  0  0  0  0  0  0  0  0
  1  2  1  0
  2  3  2  0
  3  4  1  0
  4  5  2  0
  5  6  1  0
  6  7  2  0
  7  8  1  0
  8  9  1  0
  9 10  1  0
  9 11  2  0
  5 12  1  0
 12  2  1  0
 11  6  1  0
M  END
$$$$
