
     RDKit          3D

 18 19  0  0  0  0  0  0  0  0999 V2000
  -12.7621   13.1184  -29.0511 C   0  0  0  0  0  0  0  0  0  0  0  0
  -13.9410   12.3895  -28.4073 C   0  0  0  0  0  0  0  0  0  0  0  0
  -13.4624   11.0885  -27.8073 C   0  0  0  0  0  0  0  0  0  0  0  0
  -14.4965   13.2801  -27.4395 N   0  0  0  0  0  0  0  0  0  0  0  0
  -15.8240   12.9582  -26.9996 C   0  0  0  0  0  0  0  0  0  0  0  0
  -16.8515   13.4629  -27.9825 C   0  0  0  0  0  0  0  0  0  0  0  0
  -17.3118   12.3698  -28.7372 O   0  0  0  0  0  0  0  0  0  0  0  0
  -16.1912   14.4766  -28.8725 C   0  0  0  0  0  0  0  0  0  0  0  0
  -16.9521   14.6390  -30.0283 O   0  0  0  0  0  0  0  0  0  0  0  0
  -16.8055   15.7605  -30.8109 C   0  0  0  0  0  0  0  0  0  0  0  0
  -15.6958   15.8781  -31.6123 C   0  0  0  0  0  0  0  0  0  0  0  0
  -15.5691   17.0100  -32.3873 C   0  0  0  0  0  0  0  0  0  0  0  0
  -16.5257   18.0028  -32.3650 C   0  0  0  0  0  0  0  0  0  0  0  0
  -17.6342   17.8468  -31.5412 C   0  0  0  0  0  0  0  0  0  0  0  0
  -18.7043   18.6595  -31.3348 N   0  0  0  0  0  0  0  0  0  0  0  0
  -19.5010   18.0512  -30.4391 C   0  0  0  0  0  0  0  0  0  0  0  0
  -18.9763   16.8518  -30.0506 C   0  0  0  0  0  0  0  0  0  0  0  0
  -17.7732   16.7261  -30.7649 C   0  0  0  0  0  0  0  0  0  0  0  0
  1  2  1  0
  2  3  1  0
  2  4  1  0
  4  5  1  0
  5  6  1  0
  6  7  1  0
  6  8  1  0
  8  9  1  0
  9 10  1  0
 10 11  2  0
 11 12  1  0
 12 13  2  0
 13 14  1  0
 14 15  1  0
 15 16  1  0
 16 17  2  0
 17 18  1  0
 18 10  1  0
 18 14  2  0
M  END
$$$$
