
     RDKit          3D

 34 37  0  0  0  0  0  0  0  0999 V2000
  -18.2318   17.1477  -37.0511 O   0  0  0  0  0  0  0  0  0  0  0  0
  -17.5622   18.1932  -37.1022 C   0  0  0  0  0  0  0  0  0  0  0  0
  -17.5492   19.0717  -35.9864 N   0  0  0  0  0  0  0  0  0  0  0  0
  -17.3363   18.5417  -34.6427 C   0  0  0  0  0  0  0  0  0  0  0  0
  -17.3220   17.0486  -34.6883 C   0  0  0  0  0  0  0  0  0  0  0  0
  -18.7229   16.5567  -34.3210 C   0  0  0  0  0  0  0  0  0  0  0  0
  -18.7882   16.3653  -32.9006 N   0  0  0  0  0  0  0  0  0  0  0  0
  -19.7744   17.0035  -32.1151 C   0  0  0  0  0  0  0  0  0  0  0  0
  -20.6727   17.8907  -32.5874 N   0  0  0  0  0  0  0  0  0  0  0  0
  -21.5928   18.4866  -31.8507 C   0  0  0  0  0  0  0  0  0  0  0  0
  -22.5658   19.4233  -32.2764 N   0  0  0  0  0  0  0  0  0  0  0  0
  -22.4051   19.9296  -33.6031 C   0  0  0  0  0  0  0  0  0  0  0  0
  -21.4766   19.4763  -34.4762 C   0  0  0  0  0  0  0  0  0  0  0  0
  -21.4561   19.9980  -35.7555 C   0  0  0  0  0  0  0  0  0  0  0  0
  -22.3681   20.9555  -36.1156 C   0  0  0  0  0  0  0  0  0  0  0  0
  -23.3413   21.4450  -35.2353 C   0  0  0  0  0  0  0  0  0  0  0  0
  -24.2530   22.3817  -35.7259 N   0  0  0  0  0  0  0  0  0  0  0  0
  -25.2002   22.1466  -36.7483 C   0  0  0  0  0  0  0  0  0  0  0  0
  -25.1407   21.1224  -37.4524 O   0  0  0  0  0  0  0  0  0  0  0  0
  -26.2480   23.0873  -36.9978 N   0  0  0  0  0  0  0  0  0  0  0  0
  -26.1514   24.5098  -36.9207 C   0  0  0  0  0  0  0  0  0  0  0  0
  -27.4555   25.0657  -37.4189 C   0  0  0  0  0  0  0  0  0  0  0  0
  -28.0375   23.9350  -38.2294 C   0  0  0  0  0  0  0  0  0  0  0  0
  -27.6007   22.7293  -37.3972 C   0  0  0  0  0  0  0  0  0  0  0  0
  -23.3288   20.9109  -33.9887 C   0  0  0  0  0  0  0  0  0  0  0  0
  -21.6350   18.1779  -30.5148 N   0  0  0  0  0  0  0  0  0  0  0  0
  -20.7861   17.3089  -29.9577 C   0  0  0  0  0  0  0  0  0  0  0  0
  -19.8442   16.7097  -30.7443 C   0  0  0  0  0  0  0  0  0  0  0  0
  -18.4789   15.3183  -29.8894 I   0  0  0  0  0  0  0  0  0  0  0  0
  -16.8023   18.5391  -38.2600 C   0  0  0  0  0  0  0  0  0  0  0  0
  -15.7576   19.3953  -38.4675 C   0  0  0  0  0  0  0  0  0  0  0  0
  -15.2200   19.5189  -39.6778 C   0  0  0  0  0  0  0  0  0  0  0  0
  -15.7637   18.7449  -40.7123 C   0  0  0  0  0  0  0  0  0  0  0  0
  -17.0714   17.8305  -39.9115 S   0  0  0  0  0  0  0  0  0  0  0  0
  1  2  2  0
  2  3  1  0
  3  4  1  0
  4  5  1  0
  5  6  1  0
  6  7  1  0
  7  8  1  0
  8  9  2  0
  9 10  1  0
 10 11  1  0
 11 12  1  0
 12 13  2  0
 13 14  1  0
 14 15  2  0
 15 16  1  0
 16 17  1  0
 17 18  1  0
 18 19  2  0
 18 20  1  0
 20 21  1  0
 21 22  1  0
 22 23  1  0
 23 24  1  0
 16 25  2  0
 10 26  2  0
 26 27  1  0
 27 28  2  0
 28 29  1  0
  2 30  1  0
 30 31  2  0
 31 32  1  0
 32 33  2  0
 33 34  1  0
 28  8  1  0
 34 30  1  0
 25 12  1  0
 24 20  1  0
M  END
$$$$
