
     RDKit          3D

 33 36  0  0  0  0  0  0  0  0999 V2000
  -16.7816   35.6240  -21.3885 C   0  0  0  0  0  0  0  0  0  0  0  0
  -17.9108   35.6190  -20.3975 C   0  0  0  0  0  0  0  0  0  0  0  0
  -18.9345   36.6138  -20.8302 C   0  0  0  0  0  0  0  0  0  0  0  0
  -18.4933   37.9239  -20.9053 C   0  0  0  0  0  0  0  0  0  0  0  0
  -19.3418   38.9260  -21.2791 C   0  0  0  0  0  0  0  0  0  0  0  0
  -18.8752   40.3167  -21.3557 C   0  0  0  0  0  0  0  0  0  0  0  0
  -19.4378   41.2534  -22.1317 N   0  0  0  0  0  0  0  0  0  0  0  0
  -18.7854   42.3908  -21.9763 O   0  0  0  0  0  0  0  0  0  0  0  0
  -17.8088   42.2283  -21.1192 C   0  0  0  0  0  0  0  0  0  0  0  0
  -16.8237   43.2033  -20.6367 C   0  0  0  0  0  0  0  0  0  0  0  0
  -16.1948   43.0475  -19.4228 C   0  0  0  0  0  0  0  0  0  0  0  0
  -15.2607   43.9654  -18.9539 C   0  0  0  0  0  0  0  0  0  0  0  0
  -14.6461   43.7757  -17.7240 O   0  0  0  0  0  0  0  0  0  0  0  0
  -14.7952   42.5115  -17.1056 C   0  0  0  0  0  0  0  0  0  0  0  0
  -14.9951   45.0203  -19.7427 N   0  0  0  0  0  0  0  0  0  0  0  0
  -15.5630   45.2340  -20.9241 C   0  0  0  0  0  0  0  0  0  0  0  0
  -15.2600   46.4078  -21.7830 C   0  0  0  0  0  0  0  0  0  0  0  0
  -14.6490   47.5011  -20.9378 C   0  0  0  0  0  0  0  0  0  0  0  0
  -15.8192   48.2303  -20.3123 C   0  0  0  0  0  0  0  0  0  0  0  0
  -16.9687   48.0464  -21.2721 C   0  0  0  0  0  0  0  0  0  0  0  0
  -16.5183   47.0651  -22.3072 C   0  0  0  0  0  0  0  0  0  0  0  0
  -16.4942   44.3129  -21.3843 C   0  0  0  0  0  0  0  0  0  0  0  0
  -17.8590   40.9220  -20.7229 N   0  0  0  0  0  0  0  0  0  0  0  0
  -20.6404   38.5866  -21.5762 C   0  0  0  0  0  0  0  0  0  0  0  0
  -21.0903   37.2977  -21.5068 C   0  0  0  0  0  0  0  0  0  0  0  0
  -22.5198   36.9682  -21.8614 C   0  0  0  0  0  0  0  0  0  0  0  0
  -20.2294   36.2574  -21.1233 C   0  0  0  0  0  0  0  0  0  0  0  0
  -20.6570   35.0058  -21.0548 O   0  0  0  0  0  0  0  0  0  0  0  0
  -20.6405   33.8620  -21.7782 C   0  0  0  0  0  0  0  0  0  0  0  0
  -20.9103   32.5603  -21.0692 C   0  0  1  0  0  0  0  0  0  0  0  0
  -22.3136   32.5727  -20.8216 O   0  0  0  0  0  0  0  0  0  0  0  0
  -20.6950   31.3376  -21.9176 C   0  0  0  0  0  0  0  0  0  0  0  0
  -19.8425   30.4583  -21.2545 O   0  0  0  0  0  0  0  0  0  0  0  0
  1  2  1  0
  2  3  1  0
  3  4  2  0
  4  5  1  0
  5  6  1  0
  6  7  2  0
  7  8  1  0
  8  9  1  0
  9 10  1  0
 10 11  2  0
 11 12  1  0
 12 13  1  0
 13 14  1  0
 12 15  2  0
 15 16  1  0
 16 17  1  0
 17 18  1  0
 18 19  1  0
 19 20  1  0
 20 21  1  0
 16 22  2  0
  9 23  2  0
  5 24  2  0
 24 25  1  0
 25 26  1  0
 25 27  2  0
 27 28  1  0
 28 29  1  0
 29 30  1  0
 30 31  1  6
 30 32  1  0
 32 33  1  0
 27  3  1  0
 23  6  1  0
 22 10  1  0
 21 17  1  0
M  END
$$$$
