
     RDKit          3D

 52 55  0  0  0  0  0  0  0  0999 V2000
  -23.6235   21.8932  -37.9618 C   0  0  0  0  0  0  0  0  0  0  0  0
  -22.8710   21.3139  -36.8215 C   0  0  0  0  0  0  0  0  0  0  0  0
  -23.8095   21.0823  -35.6352 C   0  0  0  0  0  0  0  0  0  0  0  0
  -22.1818   20.0065  -37.0892 C   0  0  0  0  0  0  0  0  0  0  0  0
  -21.4010   19.4184  -35.9948 C   0  0  2  0  0  0  0  0  0  0  0  0
  -20.6869   18.1832  -36.2192 N   0  0  0  0  0  0  0  0  0  0  0  0
  -19.9072   17.9635  -37.3763 C   0  0  0  0  0  0  0  0  0  0  0  0
  -20.4727   17.1669  -38.2462 O   0  0  0  0  0  0  0  0  0  0  0  0
  -18.5840   18.5101  -37.7201 C   0  0  2  0  0  0  0  0  0  0  0  0
  -17.7480   18.9354  -36.5656 C   0  0  0  0  0  0  0  0  0  0  0  0
  -16.5556   18.1854  -36.1601 C   0  0  0  0  0  0  0  0  0  0  0  0
  -15.7713   18.7277  -35.0475 C   0  0  0  0  0  0  0  0  0  0  0  0
  -14.6909   19.5266  -35.1468 C   0  0  0  0  0  0  0  0  0  0  0  0
  -14.0135   20.0155  -34.0567 C   0  0  0  0  0  0  0  0  0  0  0  0
  -14.4236   19.6985  -32.7975 C   0  0  0  0  0  0  0  0  0  0  0  0
  -15.5146   18.8903  -32.6393 C   0  0  0  0  0  0  0  0  0  0  0  0
  -16.1818   18.4091  -33.7352 C   0  0  0  0  0  0  0  0  0  0  0  0
  -18.5346   19.3922  -38.8433 N   0  0  0  0  0  0  0  0  0  0  0  0
  -18.0182   18.9462  -40.1200 C   0  0  0  0  0  0  0  0  0  0  0  0
  -17.1343   18.0502  -40.0787 O   0  0  0  0  0  0  0  0  0  0  0  0
  -18.4727   19.4893  -41.4160 C   0  0  0  0  0  0  0  0  0  0  0  0
  -17.4019   19.6249  -42.3449 N   0  0  0  0  0  0  0  0  0  0  0  0
  -16.1924   20.1876  -41.8289 C   0  0  0  0  0  0  0  0  0  0  0  0
  -16.4092   21.6972  -41.6821 C   0  0  0  0  0  0  0  0  0  0  0  0
  -16.5162   22.1713  -42.9904 O   0  0  0  0  0  0  0  0  0  0  0  0
  -17.6284   21.6609  -43.6077 C   0  0  0  0  0  0  0  0  0  0  0  0
  -17.7186   20.1564  -43.6253 C   0  0  0  0  0  0  0  0  0  0  0  0
  -22.1622   19.3529  -34.6973 C   0  0  0  0  0  0  0  0  0  0  0  0
  -22.0709   20.3211  -33.9174 O   0  0  0  0  0  0  0  0  0  0  0  0
  -22.9459   18.2251  -34.4112 N   0  0  0  0  0  0  0  0  0  0  0  0
  -23.0554   17.6489  -33.0336 C   0  0  1  0  0  0  0  0  0  0  0  0
  -22.4702   16.2763  -33.0825 C   0  0  0  0  0  0  0  0  0  0  0  0
  -23.0924   15.2609  -33.8893 C   0  0  0  0  0  0  0  0  0  0  0  0
  -24.4427   15.0071  -33.7303 C   0  0  0  0  0  0  0  0  0  0  0  0
  -25.0907   14.0760  -34.5423 C   0  0  0  0  0  0  0  0  0  0  0  0
  -24.4062   13.3919  -35.5154 C   0  0  0  0  0  0  0  0  0  0  0  0
  -23.0627   13.6418  -35.6760 C   0  0  0  0  0  0  0  0  0  0  0  0
  -22.4135   14.5718  -34.8652 C   0  0  0  0  0  0  0  0  0  0  0  0
  -22.3383   18.5574  -32.1575 C   0  0  0  0  0  0  0  0  0  0  0  0
  -22.5493   18.5672  -30.8831 O   0  0  0  0  0  0  0  0  0  0  0  0
  -21.3415   19.5245  -32.5463 N   0  0  0  0  0  0  0  0  0  0  0  0
  -20.5173   20.1708  -31.5564 C   0  0  1  0  0  0  0  0  0  0  0  0
  -19.4293   21.0409  -32.0648 C   0  0  0  0  0  0  0  0  0  0  0  0
  -19.6701   21.8871  -33.2635 C   0  0  0  0  0  0  0  0  0  0  0  0
  -18.6022   21.5011  -34.3461 C   0  0  0  0  0  0  0  0  0  0  0  0
  -21.0182   21.6141  -33.8859 C   0  0  0  0  0  0  0  0  0  0  0  0
  -21.3997   21.0365  -30.6912 C   0  0  0  0  0  0  0  0  0  0  0  0
  -20.9352   21.7468  -29.8311 O   0  0  0  0  0  0  0  0  0  0  0  0
  -22.8643   21.0548  -30.8651 C   0  0  1  0  0  0  0  0  0  0  0  0
  -23.6854   22.1990  -30.3597 C   0  0  0  0  0  0  0  0  0  0  0  0
  -23.4450   20.2543  -32.0146 C   0  0  0  0  0  0  0  0  0  0  0  0
  -23.4892   19.7437  -30.7376 O   0  0  0  0  0  0  0  0  0  0  0  0
  1  2  1  0
  2  3  1  0
  2  4  1  0
  5  4  1  6
  5  6  1  0
  6  7  1  0
  7  8  2  0
  7  9  1  0
  9 10  1  1
 10 11  1  0
 11 12  1  0
 12 13  2  0
 13 14  1  0
 14 15  2  0
 15 16  1  0
 16 17  2  0
  9 18  1  0
 18 19  1  0
 19 20  2  0
 19 21  1  0
 21 22  1  0
 22 23  1  0
 23 24  1  0
 24 25  1  0
 25 26  1  0
 26 27  1  0
  5 28  1  0
 28 29  2  0
 28 30  1  0
 30 31  1  0
 31 32  1  6
 32 33  1  0
 33 34  2  0
 34 35  1  0
 35 36  2  0
 36 37  1  0
 37 38  2  0
 31 39  1  0
 39 40  2  0
 39 41  1  0
 41 42  1  0
 42 43  1  6
 43 44  1  0
 44 45  1  0
 44 46  1  0
 42 47  1  0
 47 48  2  0
 47 49  1  0
 49 50  1  1
 49 51  1  0
 51 52  1  0
 17 12  1  0
 27 22  1  0
 38 33  1  0
 52 49  1  0
M  END
$$$$
