
     RDKit          3D

 18 20  0  0  0  0  0  0  0  0999 V2000
  -19.4886   39.1793  -18.0388 O   0  0  0  0  0  0  0  0  0  0  0  0
  -19.0057   39.7195  -19.0821 C   0  0  0  0  0  0  0  0  0  0  0  0
  -19.2921   39.4278  -20.4340 N   0  0  0  0  0  0  0  0  0  0  0  0
  -18.7721   40.3153  -21.3926 C   0  0  0  0  0  0  0  0  0  0  0  0
  -18.9668   40.1557  -22.6459 O   0  0  0  0  0  0  0  0  0  0  0  0
  -18.0078   41.4128  -20.8686 C   0  0  0  0  0  0  0  0  0  0  0  0
  -17.5836   42.4606  -21.5154 C   0  0  0  0  0  0  0  0  0  0  0  0
  -16.9116   43.5543  -20.8483 C   0  0  0  0  0  0  0  0  0  0  0  0
  -17.1488   44.8407  -21.2469 C   0  0  0  0  0  0  0  0  0  0  0  0
  -16.5098   45.9177  -20.6584 C   0  0  0  0  0  0  0  0  0  0  0  0
  -15.5995   45.7077  -19.6295 C   0  0  0  0  0  0  0  0  0  0  0  0
  -14.9734   46.7672  -19.0395 N   0  0  0  0  0  0  0  0  0  0  0  0
  -14.1001   46.4988  -18.0374 C   0  0  0  0  0  0  0  0  0  0  0  0
  -13.8312   45.2208  -17.6064 C   0  0  0  0  0  0  0  0  0  0  0  0
  -14.4758   44.2196  -18.2231 N   0  0  0  0  0  0  0  0  0  0  0  0
  -15.3563   44.4152  -19.2245 C   0  0  0  0  0  0  0  0  0  0  0  0
  -16.0124   43.3416  -19.8346 C   0  0  0  0  0  0  0  0  0  0  0  0
  -17.7900   41.0517  -19.1471 S   0  0  0  0  0  0  0  0  0  0  0  0
  1  2  2  0
  2  3  1  0
  3  4  1  0
  4  5  2  0
  4  6  1  0
  6  7  2  0
  7  8  1  0
  8  9  2  0
  9 10  1  0
 10 11  2  0
 11 12  1  0
 12 13  2  0
 13 14  1  0
 14 15  2  0
 15 16  1  0
 16 17  2  0
  6 18  1  0
 18  2  1  0
 17  8  1  0
 16 11  1  0
M  END
$$$$
