
     RDKit          3D

 28 30  0  0  0  0  0  0  0  0999 V2000
  -36.1728    7.7293  -18.2982 C   0  0  0  0  0  0  0  0  0  0  0  0
  -35.1076    8.0682  -19.3059 C   0  0  0  0  0  0  0  0  0  0  0  0
  -34.9086    9.8434  -19.5043 S   0  0  0  0  0  4  0  0  0  0  0  0
  -35.4510   10.1918  -20.9052 O   0  0  0  0  0  0  0  0  0  0  0  0
  -33.1996   10.2697  -19.3753 C   0  0  0  0  0  0  0  0  0  0  0  0
  -32.6779   11.3662  -19.9481 N   0  0  0  0  0  0  0  0  0  0  0  0
  -31.3633   11.6818  -19.8411 C   0  0  0  0  0  0  0  0  0  0  0  0
  -30.8527   12.9044  -20.4963 C   0  0  0  0  0  0  0  0  0  0  0  0
  -31.6227   13.6564  -21.3437 C   0  0  0  0  0  0  0  0  0  0  0  0
  -31.0961   14.8069  -21.9411 C   0  0  0  0  0  0  0  0  0  0  0  0
  -29.8034   15.2253  -21.7068 C   0  0  0  0  0  0  0  0  0  0  0  0
  -29.0119   14.4852  -20.8597 C   0  0  0  0  0  0  0  0  0  0  0  0
  -27.7384   14.8165  -20.5749 O   0  0  0  0  0  0  0  0  0  0  0  0
  -26.6806   15.3909  -21.1975 C   0  0  0  0  0  0  0  0  0  0  0  0
  -26.1477   16.6502  -20.6343 C   0  0  0  0  0  0  0  0  0  0  0  0
  -25.8289   17.6807  -21.5306 C   0  0  0  0  0  0  0  0  0  0  0  0
  -25.2977   18.8708  -21.0929 C   0  0  0  0  0  0  0  0  0  0  0  0
  -25.0615   19.0865  -19.7506 C   0  0  0  0  0  0  0  0  0  0  0  0
  -25.3654   18.0923  -18.8556 C   0  0  0  0  0  0  0  0  0  0  0  0
  -25.8988   16.9008  -19.3097 C   0  0  0  0  0  0  0  0  0  0  0  0
  -29.5722   13.3252  -20.2690 C   0  0  0  0  0  0  0  0  0  0  0  0
  -30.5505   10.8487  -19.1236 C   0  0  0  0  0  0  0  0  0  0  0  0
  -31.0762    9.7001  -18.5187 C   0  0  0  0  0  0  0  0  0  0  0  0
  -30.1371    8.8474  -17.7592 C   0  0  0  0  0  0  0  0  0  0  0  0
  -30.8786    8.1420  -16.8095 F   0  0  0  0  0  0  0  0  0  0  0  0
  -29.1379    9.5879  -17.1660 F   0  0  0  0  0  0  0  0  0  0  0  0
  -29.5722    7.9513  -18.6693 F   0  0  0  0  0  0  0  0  0  0  0  0
  -32.3839    9.4627  -18.6736 N   0  0  0  0  0  0  0  0  0  0  0  0
  1  2  1  0
  2  3  1  0
  3  4  2  0
  3  5  1  0
  5  6  2  0
  6  7  1  0
  7  8  1  0
  8  9  2  0
  9 10  1  0
 10 11  2  0
 11 12  1  0
 12 13  1  0
 13 14  1  0
 14 15  1  0
 15 16  2  0
 16 17  1  0
 17 18  2  0
 18 19  1  0
 19 20  2  0
 12 21  2  0
  7 22  2  0
 22 23  1  0
 23 24  1  0
 24 25  1  0
 24 26  1  0
 24 27  1  0
 23 28  2  0
 28  5  1  0
 21  8  1  0
 20 15  1  0
M  END
$$$$
