
     RDKit          3D

 28 31  0  0  0  0  0  0  0  0999 V2000
  -11.2090   45.1068  -19.4765 C   0  0  0  0  0  0  0  0  0  0  0  0
  -12.5610   44.9289  -18.9992 N   0  0  0  0  0  0  0  0  0  0  0  0
  -13.4266   43.9767  -19.5445 C   0  0  0  0  0  0  0  0  0  0  0  0
  -12.9516   43.2033  -20.4413 O   0  0  0  0  0  0  0  0  0  0  0  0
  -14.8184   43.8102  -19.1618 C   0  0  0  0  0  0  0  0  0  0  0  0
  -15.4649   44.5878  -18.2283 C   0  0  0  0  0  0  0  0  0  0  0  0
  -16.7273   44.1318  -18.1508 N   0  0  0  0  0  0  0  0  0  0  0  0
  -16.9341   43.1163  -18.9699 N   0  0  0  0  0  0  0  0  0  0  0  0
  -18.1259   42.3557  -19.1886 C   0  0  0  0  0  0  0  0  0  0  0  0
  -19.2277   42.5226  -18.4361 N   0  0  0  0  0  0  0  0  0  0  0  0
  -20.3733   41.8394  -18.5938 C   0  0  0  0  0  0  0  0  0  0  0  0
  -21.5167   42.0174  -17.8076 N   0  0  0  0  0  0  0  0  0  0  0  0
  -20.4381   40.8892  -19.6029 C   0  0  0  0  0  0  0  0  0  0  0  0
  -21.3926   40.0525  -20.0277 N   0  0  0  0  0  0  0  0  0  0  0  0
  -20.8998   39.3355  -21.0692 C   0  0  0  0  0  0  0  0  0  0  0  0
  -19.6369   39.7454  -21.2720 N   0  0  0  0  0  0  0  0  0  0  0  0
  -18.7175   39.2439  -22.2975 C   0  0  2  0  0  0  0  0  0  0  0  0
  -19.4323   38.8494  -23.3803 O   0  0  0  0  0  0  0  0  0  0  0  0
  -19.2812   37.5209  -23.6102 C   0  0  2  0  0  0  0  0  0  0  0  0
  -20.5707   36.7964  -23.9338 C   0  0  0  0  0  0  0  0  0  0  0  0
  -20.7139   35.6900  -23.0909 O   0  0  0  0  0  0  0  0  0  0  0  0
  -18.5786   36.8876  -22.4590 C   0  0  1  0  0  0  0  0  0  0  0  0
  -17.6132   35.9759  -22.8355 O   0  0  0  0  0  0  0  0  0  0  0  0
  -17.9925   38.0644  -21.7201 C   0  0  1  0  0  0  0  0  0  0  0  0
  -16.6152   38.1244  -21.9289 O   0  0  0  0  0  0  0  0  0  0  0  0
  -19.3167   40.7047  -20.3850 C   0  0  0  0  0  0  0  0  0  0  0  0
  -18.1924   41.4329  -20.1669 N   0  0  0  0  0  0  0  0  0  0  0  0
  -15.7623   42.9103  -19.5981 C   0  0  0  0  0  0  0  0  0  0  0  0
  1  2  1  0
  2  3  1  0
  3  4  2  0
  3  5  1  0
  5  6  1  0
  6  7  2  0
  7  8  1  0
  8  9  1  0
  9 10  2  0
 10 11  1  0
 11 12  1  0
 11 13  2  0
 13 14  1  0
 14 15  2  0
 15 16  1  0
 17 16  1  1
 17 18  1  0
 18 19  1  0
 19 20  1  1
 20 21  1  0
 19 22  1  0
 22 23  1  6
 22 24  1  0
 24 25  1  6
 16 26  1  0
 26 27  2  0
  8 28  1  0
 28  5  2  0
 27  9  1  0
 26 13  1  0
 24 17  1  0
M  END
$$$$
