
     RDKit          3D

 28 31  0  0  0  0  0  0  0  0999 V2000
  -23.1509   24.5011  -39.7793 O   0  0  0  0  0  0  0  0  0  0  0  0
  -22.7662   23.3158  -39.7621 C   0  0  0  0  0  0  0  0  0  0  0  0
  -21.6124   22.8951  -40.6407 C   0  0  0  0  0  0  0  0  0  0  0  0
  -20.8141   24.0235  -40.9595 O   0  0  0  0  0  0  0  0  0  0  0  0
  -21.1887   24.9186  -41.9543 C   0  0  0  0  0  0  0  0  0  0  0  0
  -21.4703   26.2455  -41.6695 C   0  0  0  0  0  0  0  0  0  0  0  0
  -21.8310   27.0671  -42.6913 C   0  0  0  0  0  0  0  0  0  0  0  0
  -21.9246   26.6239  -43.9927 C   0  0  0  0  0  0  0  0  0  0  0  0
  -22.3029   27.5224  -45.0075 N   0  0  0  0  0  0  0  0  0  0  0  0
  -22.0204   27.3926  -46.3197 C   0  0  0  0  0  0  0  0  0  0  0  0
  -22.5726   28.4798  -46.9441 C   0  0  0  0  0  0  0  0  0  0  0  0
  -23.1626   29.2182  -45.9915 N   0  0  0  0  0  0  0  0  0  0  0  0
  -23.0108   28.6520  -44.7970 C   0  0  0  0  0  0  0  0  0  0  0  0
  -21.6459   25.2935  -44.3013 C   0  0  0  0  0  0  0  0  0  0  0  0
  -21.2811   24.4733  -43.2513 C   0  0  0  0  0  0  0  0  0  0  0  0
  -23.4102   22.3771  -38.9235 N   0  0  0  0  0  0  0  0  0  0  0  0
  -24.4447   22.6652  -38.0071 C   0  0  0  0  0  0  0  0  0  0  0  0
  -24.5118   22.2547  -36.7069 C   0  0  0  0  0  0  0  0  0  0  0  0
  -25.6150   22.6365  -35.9421 C   0  0  0  0  0  0  0  0  0  0  0  0
  -26.6386   23.4099  -36.4436 C   0  0  0  0  0  0  0  0  0  0  0  0
  -27.7889   23.8076  -35.6456 C   0  0  0  0  0  0  0  0  0  0  0  0
  -28.5037   22.9333  -34.8563 C   0  0  0  0  0  0  0  0  0  0  0  0
  -29.5869   23.3652  -34.1187 C   0  0  0  0  0  0  0  0  0  0  0  0
  -29.9588   24.7052  -34.1764 C   0  0  0  0  0  0  0  0  0  0  0  0
  -29.2599   25.5894  -34.9559 C   0  0  0  0  0  0  0  0  0  0  0  0
  -28.1841   25.1415  -35.6836 C   0  0  0  0  0  0  0  0  0  0  0  0
  -26.5747   23.8281  -37.7608 C   0  0  0  0  0  0  0  0  0  0  0  0
  -25.4893   23.4527  -38.5138 C   0  0  0  0  0  0  0  0  0  0  0  0
  1  2  2  0
  2  3  1  0
  3  4  1  0
  4  5  1  0
  5  6  2  0
  6  7  1  0
  7  8  2  0
  8  9  1  0
  9 10  1  0
 10 11  2  0
 11 12  1  0
 12 13  2  0
  8 14  1  0
 14 15  2  0
  2 16  1  0
 16 17  1  0
 17 18  2  0
 18 19  1  0
 19 20  2  0
 20 21  1  0
 21 22  2  0
 22 23  1  0
 23 24  2  0
 24 25  1  0
 25 26  2  0
 20 27  1  0
 27 28  2  0
 15  5  1  0
 28 17  1  0
 13  9  1  0
 26 21  1  0
M  END
$$$$
