
     RDKit          3D

 20 20  0  0  0  0  0  0  0  0999 V2000
  -13.6054   44.3770  -17.3198 C   0  0  0  0  0  0  0  0  0  0  0  0
  -14.2124   43.9976  -18.6771 C   0  0  0  0  0  0  0  0  0  0  0  0
  -13.0560   43.9792  -19.6553 C   0  0  0  0  0  0  0  0  0  0  0  0
  -15.1120   45.0444  -19.0258 N   0  0  0  0  0  0  0  0  0  0  0  0
  -15.7975   44.9207  -20.2633 C   0  0  0  0  0  0  0  0  0  0  0  0
  -16.8192   43.8028  -20.3223 C   0  0  0  0  0  0  0  0  0  0  0  0
  -17.8151   43.9791  -19.3548 O   0  0  0  0  0  0  0  0  0  0  0  0
  -17.5189   43.8714  -21.6605 C   0  0  0  0  0  0  0  0  0  0  0  0
  -18.4910   42.9430  -21.8730 O   0  0  0  0  0  0  0  0  0  0  0  0
  -18.5690   41.6033  -21.9561 C   0  0  0  0  0  0  0  0  0  0  0  0
  -17.5403   40.7255  -21.8424 C   0  0  0  0  0  0  0  0  0  0  0  0
  -17.6957   39.3381  -21.9413 C   0  0  0  0  0  0  0  0  0  0  0  0
  -18.9635   38.8492  -22.1668 C   0  0  0  0  0  0  0  0  0  0  0  0
  -20.0281   39.7187  -22.2873 C   0  0  0  0  0  0  0  0  0  0  0  0
  -21.2849   39.1952  -22.5148 C   0  0  0  0  0  0  0  0  0  0  0  0
  -22.3677   40.0415  -22.6410 C   0  0  0  0  0  0  0  0  0  0  0  0
  -22.1898   41.4037  -22.5391 C   0  0  0  0  0  0  0  0  0  0  0  0
  -20.9434   41.9431  -22.3123 C   0  0  0  0  0  0  0  0  0  0  0  0
  -19.8571   41.0760  -22.1868 C   0  0  0  0  0  0  0  0  0  0  0  0
  -16.7907   42.9607  -20.5250 Cl  0  0  0  0  0  0  0  0  0  0  0  0
  1  2  1  0
  2  3  1  0
  2  4  1  0
  4  5  1  0
  5  6  1  0
  6  7  1  0
  6  8  1  0
  8  9  1  0
  9 10  1  0
 10 11  2  0
 11 12  1  0
 12 13  2  0
 13 14  1  0
 14 15  2  0
 15 16  1  0
 16 17  2  0
 17 18  1  0
 18 19  2  0
 19 10  1  0
 19 14  1  0
M  END
$$$$
