
     RDKit          3D

 28 30  0  0  0  0  0  0  0  0999 V2000
  -28.0470   14.9625  -21.7339 O   0  0  0  0  0  0  0  0  0  0  0  0
  -28.4505   16.1717  -21.6290 C   0  0  0  0  0  0  0  0  0  0  0  0
  -29.5547   16.3613  -20.7698 N   0  0  0  0  0  0  0  0  0  0  0  0
  -30.2603   15.2775  -20.1504 C   0  0  0  0  0  0  0  0  0  0  0  0
  -31.2358   15.2481  -19.2053 C   0  0  0  0  0  0  0  0  0  0  0  0
  -31.5113   13.9105  -19.0040 C   0  0  0  0  0  0  0  0  0  0  0  0
  -30.7133   13.1388  -19.8165 N   0  0  0  0  0  0  0  0  0  0  0  0
  -30.7835   11.6983  -19.8296 C   0  0  0  0  0  0  0  0  0  0  0  0
  -31.5364   11.0821  -18.7341 C   0  0  0  0  0  0  0  0  0  0  0  0
  -30.9558   10.9865  -17.4537 C   0  0  0  0  0  0  0  0  0  0  0  0
  -31.5775   10.3868  -16.4011 C   0  0  0  0  0  0  0  0  0  0  0  0
  -32.8353    9.8407  -16.5777 C   0  0  0  0  0  0  0  0  0  0  0  0
  -33.5008    9.2165  -15.5187 O   0  0  0  0  0  0  0  0  0  0  0  0
  -33.4051    9.9319  -17.8233 C   0  0  0  0  0  0  0  0  0  0  0  0
  -32.7775   10.5486  -18.9183 C   0  0  0  0  0  0  0  0  0  0  0  0
  -33.5310   10.6137  -20.1964 C   0  0  0  0  0  0  0  0  0  0  0  0
  -33.8268   11.9724  -20.4731 F   0  0  0  0  0  0  0  0  0  0  0  0
  -32.7519   10.1997  -21.2661 F   0  0  0  0  0  0  0  0  0  0  0  0
  -34.7659   10.0174  -20.1672 F   0  0  0  0  0  0  0  0  0  0  0  0
  -29.9921   13.9833  -20.4753 N   0  0  0  0  0  0  0  0  0  0  0  0
  -27.7489   17.1915  -22.3830 C   0  0  0  0  0  0  0  0  0  0  0  0
  -26.7178   17.9532  -21.8955 C   0  0  0  0  0  0  0  0  0  0  0  0
  -26.2937   17.7965  -20.6200 F   0  0  0  0  0  0  0  0  0  0  0  0
  -26.0838   18.9129  -22.7014 C   0  0  0  0  0  0  0  0  0  0  0  0
  -26.4735   19.1193  -23.9955 C   0  0  0  0  0  0  0  0  0  0  0  0
  -27.5092   18.3543  -24.4838 C   0  0  0  0  0  0  0  0  0  0  0  0
  -28.1423   17.4095  -23.7110 C   0  0  0  0  0  0  0  0  0  0  0  0
  -29.1613   16.6649  -24.2057 F   0  0  0  0  0  0  0  0  0  0  0  0
  1  2  2  0
  2  3  1  0
  3  4  1  0
  4  5  1  0
  5  6  2  0
  6  7  1  0
  7  8  1  0
  8  9  1  0
  9 10  2  0
 10 11  1  0
 11 12  2  0
 12 13  1  0
 12 14  1  0
 14 15  2  0
 15 16  1  0
 16 17  1  0
 16 18  1  0
 16 19  1  0
  7 20  1  0
  2 21  1  0
 21 22  2  0
 22 23  1  0
 22 24  1  0
 24 25  2  0
 25 26  1  0
 26 27  2  0
 27 28  1  0
 20  4  2  0
 27 21  1  0
 15  9  1  0
M  END
$$$$
