
     RDKit          3D

 26 26  0  0  0  0  0  0  0  0999 V2000
  -20.8715   20.8690  -30.6347 C   0  0  0  0  0  0  0  0  0  0  0  0
  -20.0636   20.8489  -31.9651 C   0  0  0  0  0  0  0  0  0  0  0  0
  -18.6807   20.4149  -31.6524 C   0  0  0  0  0  0  0  0  0  0  0  0
  -18.4393   19.0750  -31.1676 C   0  0  0  0  0  0  0  0  0  0  0  0
  -17.2677   18.2686  -31.4943 C   0  0  1  0  0  0  0  0  0  0  0  0
  -16.0183   18.8669  -31.9292 C   0  0  0  0  0  0  0  0  0  0  0  0
  -15.0432   19.2426  -31.3600 O   0  0  0  0  0  0  0  0  0  0  0  0
  -17.0236   17.3261  -30.3751 N   0  0  0  0  0  0  0  0  0  0  0  0
  -16.4300   16.0760  -30.6273 C   0  0  0  0  0  0  0  0  0  0  0  0
  -16.0721   15.7900  -31.8175 O   0  0  0  0  0  0  0  0  0  0  0  0
  -16.1997   15.0641  -29.5555 C   0  0  2  0  0  0  0  0  0  0  0  0
  -15.0925   14.1081  -29.9223 C   0  0  0  0  0  0  0  0  0  0  0  0
  -14.8199   13.0895  -28.8721 C   0  0  0  0  0  0  0  0  0  0  0  0
  -13.7447   12.1198  -29.3129 C   0  0  0  0  0  0  0  0  0  0  0  0
  -14.3971   13.6735  -27.5526 C   0  0  0  0  0  0  0  0  0  0  0  0
  -17.4460   14.3507  -29.3807 N   0  0  0  0  0  0  0  0  0  0  0  0
  -18.6417   15.0075  -28.9894 C   0  0  0  0  0  0  0  0  0  0  0  0
  -18.6985   15.4276  -27.8051 O   0  0  0  0  0  0  0  0  0  0  0  0
  -19.7170   15.1955  -29.8447 O   0  0  0  0  0  0  0  0  0  0  0  0
  -20.9974   15.3866  -29.2706 C   0  0  0  0  0  0  0  0  0  0  0  0
  -22.0461   15.0755  -30.2881 C   0  0  0  0  0  0  0  0  0  0  0  0
  -23.3859   15.1282  -29.9932 C   0  0  0  0  0  0  0  0  0  0  0  0
  -24.3185   14.8276  -30.9834 C   0  0  0  0  0  0  0  0  0  0  0  0
  -23.9541   14.4756  -32.2599 C   0  0  0  0  0  0  0  0  0  0  0  0
  -22.6051   14.4257  -32.5456 C   0  0  0  0  0  0  0  0  0  0  0  0
  -21.6647   14.7252  -31.5600 C   0  0  0  0  0  0  0  0  0  0  0  0
  1  2  1  0
  2  3  1  0
  3  4  1  0
  5  4  1  1
  5  6  1  0
  6  7  2  0
  5  8  1  0
  8  9  1  0
  9 10  2  0
  9 11  1  0
 11 12  1  6
 12 13  1  0
 13 14  1  0
 13 15  1  0
 11 16  1  0
 16 17  1  0
 17 18  2  0
 17 19  1  0
 19 20  1  0
 20 21  1  0
 21 22  2  0
 22 23  1  0
 23 24  2  0
 24 25  1  0
 25 26  2  0
 26 21  1  0
M  END
$$$$
