
     RDKit          3D

 21 23  0  0  0  0  0  0  0  0999 V2000
  -18.0696   41.4659  -20.4605 Cl  0  0  0  0  0  0  0  0  0  0  0  0
  -20.6790   42.5992  -18.2279 O   0  0  0  0  0  0  0  0  0  0  0  0
  -19.7249   42.3500  -19.0062 C   0  0  0  0  0  0  0  0  0  0  0  0
  -18.7756   43.2901  -19.1629 N   0  0  0  0  0  0  0  0  0  0  0  0
  -17.7363   43.0418  -19.9988 C   0  0  0  0  0  0  0  0  0  0  0  0
  -16.6600   44.0335  -20.2151 C   0  0  2  0  0  0  0  0  0  0  0  0
  -15.6723   44.1019  -19.0951 C   0  0  0  0  0  0  0  0  0  0  0  0
  -15.3923   45.5815  -18.9480 C   0  0  0  0  0  0  0  0  0  0  0  0
  -15.9271   46.1562  -20.2609 C   0  0  0  0  0  0  0  0  0  0  0  0
  -17.1663   45.3765  -20.4164 N   0  0  0  0  0  0  0  0  0  0  0  0
  -17.6871   41.8611  -20.6462 N   0  0  0  0  0  0  0  0  0  0  0  0
  -18.6133   40.9011  -20.5156 C   0  0  0  0  0  0  0  0  0  0  0  0
  -19.6779   41.1373  -19.6689 C   0  0  0  0  0  0  0  0  0  0  0  0
  -20.4253   40.0671  -19.7172 O   0  0  0  0  0  0  0  0  0  0  0  0
  -19.9309   39.1554  -20.5274 C   0  0  0  0  0  0  0  0  0  0  0  0
  -20.3173   37.8859  -20.9249 C   0  0  0  0  0  0  0  0  0  0  0  0
  -19.5832   37.1402  -21.8118 C   0  0  0  0  0  0  0  0  0  0  0  0
  -18.3962   37.6267  -22.3660 C   0  0  0  0  0  0  0  0  0  0  0  0
  -17.4766   36.6751  -23.4861 Cl  0  0  0  0  0  0  0  0  0  0  0  0
  -18.0210   38.8870  -21.9658 C   0  0  0  0  0  0  0  0  0  0  0  0
  -18.7507   39.6421  -21.0769 C   0  0  0  0  0  0  0  0  0  0  0  0
  2  3  2  0
  3  4  1  0
  4  5  1  0
  6  5  1  1
  6  7  1  0
  7  8  1  0
  8  9  1  0
  9 10  1  0
  5 11  2  0
 11 12  1  0
 12 13  2  0
 13 14  1  0
 14 15  1  0
 15 16  2  0
 16 17  1  0
 17 18  2  0
 18 19  1  0
 18 20  1  0
 20 21  2  0
 13  3  1  0
 21 15  1  0
 10  6  1  0
 21 12  1  0
M  END
$$$$
