
     RDKit          3D

 17 18  0  0  0  0  0  0  0  0999 V2000
  -23.0781   35.6710  -23.1220 C   0  0  0  0  0  0  0  0  0  0  0  0
  -22.5721   35.8076  -21.7171 C   0  0  0  0  0  0  0  0  0  0  0  0
  -21.1100   35.8576  -21.6685 N   0  0  0  0  0  0  0  0  0  0  0  0
  -20.4666   37.0327  -21.7627 C   0  0  0  0  0  0  0  0  0  0  0  0
  -19.0888   37.0405  -21.7130 C   0  0  0  0  0  0  0  0  0  0  0  0
  -18.4226   38.3397  -21.8188 C   0  0  0  0  0  0  0  0  0  0  0  0
  -19.0591   39.4087  -21.9838 O   0  0  0  0  0  0  0  0  0  0  0  0
  -17.0413   38.4165  -21.7368 O   0  0  0  0  0  0  0  0  0  0  0  0
  -18.3560   35.8852  -21.5704 C   0  0  0  0  0  0  0  0  0  0  0  0
  -17.1073   35.8997  -21.5260 O   0  0  0  0  0  0  0  0  0  0  0  0
  -19.0296   34.6938  -21.4756 C   0  0  0  0  0  0  0  0  0  0  0  0
  -18.3587   33.4808  -21.3294 C   0  0  0  0  0  0  0  0  0  0  0  0
  -19.0683   32.3015  -21.2372 C   0  0  0  0  0  0  0  0  0  0  0  0
  -20.4446   32.3285  -21.2904 C   0  0  0  0  0  0  0  0  0  0  0  0
  -21.2310   31.0634  -21.1924 C   0  0  0  0  0  0  0  0  0  0  0  0
  -21.0573   33.5135  -21.4316 N   0  0  0  0  0  0  0  0  0  0  0  0
  -20.4069   34.7038  -21.5271 C   0  0  0  0  0  0  0  0  0  0  0  0
  1  2  1  0
  2  3  1  0
  3  4  1  0
  4  5  2  0
  5  6  1  0
  6  7  2  0
  6  8  1  0
  5  9  1  0
  9 10  2  0
  9 11  1  0
 11 12  2  0
 12 13  1  0
 13 14  2  0
 14 15  1  0
 14 16  1  0
 16 17  2  0
 17  3  1  0
 17 11  1  0
M  END
$$$$
