
     RDKit          3D

  9  9  0  0  0  0  0  0  0  0999 V2000
  -17.1326   38.0398  -23.5237 O   0  0  0  0  0  0  0  0  0  0  0  0
  -17.4214   37.3045  -22.2978 B   0  0  0  0  0  0  0  0  0  0  0  0
  -17.7183   38.1042  -21.0984 O   0  0  0  0  0  0  0  0  0  0  0  0
  -18.0937   35.9037  -22.3769 C   0  0  0  0  0  0  0  0  0  0  0  0
  -18.2071   35.2374  -23.5760 C   0  0  0  0  0  0  0  0  0  0  0  0
  -18.8116   33.9765  -23.6504 C   0  0  0  0  0  0  0  0  0  0  0  0
  -19.3102   33.3696  -22.5176 C   0  0  0  0  0  0  0  0  0  0  0  0
  -19.1938   34.0402  -21.3233 C   0  0  0  0  0  0  0  0  0  0  0  0
  -18.5912   35.2961  -21.2517 C   0  0  0  0  0  0  0  0  0  0  0  0
  1  2  1  0
  2  3  1  0
  2  4  1  0
  4  5  2  0
  5  6  1  0
  6  7  2  0
  7  8  1  0
  8  9  2  0
  9  4  1  0
M  END
$$$$
