
     RDKit          3D

 32 35  0  0  0  0  0  0  0  0999 V2000
  -16.4712   36.1443  -20.4814 C   0  0  0  0  0  0  0  0  0  0  0  0
  -17.8333   36.7624  -20.6352 C   0  0  0  0  0  0  0  0  0  0  0  0
  -18.2182   36.9594  -22.3511 S   0  0  0  0  0  6  0  0  0  0  0  0
  -16.9546   37.0653  -23.1520 O   0  0  0  0  0  0  0  0  0  0  0  0
  -19.0173   35.7674  -22.8469 O   0  0  0  0  0  0  0  0  0  0  0  0
  -19.1956   38.3479  -22.6106 N   0  0  0  0  0  0  0  0  0  0  0  0
  -18.6539   39.6408  -22.3871 C   0  0  0  0  0  0  0  0  0  0  0  0
  -17.4879   40.1079  -22.9362 C   0  0  0  0  0  0  0  0  0  0  0  0
  -17.0494   41.3920  -22.6533 C   0  0  0  0  0  0  0  0  0  0  0  0
  -17.7496   42.2337  -21.8281 C   0  0  0  0  0  0  0  0  0  0  0  0
  -17.3805   43.5190  -21.4990 O   0  0  0  0  0  0  0  0  0  0  0  0
  -16.2531   43.9075  -20.8302 C   0  0  0  0  0  0  0  0  0  0  0  0
  -15.6657   43.0773  -19.8684 C   0  0  0  0  0  0  0  0  0  0  0  0
  -14.5336   43.4912  -19.2116 C   0  0  0  0  0  0  0  0  0  0  0  0
  -13.9493   44.7241  -19.4783 C   0  0  0  0  0  0  0  0  0  0  0  0
  -12.8362   45.0660  -18.7937 F   0  0  0  0  0  0  0  0  0  0  0  0
  -14.5459   45.5042  -20.4179 C   0  0  0  0  0  0  0  0  0  0  0  0
  -15.6762   45.1393  -21.1025 C   0  0  0  0  0  0  0  0  0  0  0  0
  -16.1932   45.9914  -22.0285 F   0  0  0  0  0  0  0  0  0  0  0  0
  -18.9271   41.7470  -21.2804 C   0  0  0  0  0  0  0  0  0  0  0  0
  -19.7266   42.6072  -20.3829 C   0  0  0  0  0  0  0  0  0  0  0  0
  -20.3222   43.7619  -20.8468 C   0  0  0  0  0  0  0  0  0  0  0  0
  -21.0445   44.5262  -20.0077 N   0  0  0  0  0  0  0  0  0  0  0  0
  -21.6487   45.7292  -20.5480 C   0  0  0  0  0  0  0  0  0  0  0  0
  -21.1699   44.1471  -18.7341 C   0  0  0  0  0  0  0  0  0  0  0  0
  -21.8492   44.8741  -17.9629 O   0  0  0  0  0  0  0  0  0  0  0  0
  -20.5906   42.9932  -18.2150 C   0  0  0  0  0  0  0  0  0  0  0  0
  -20.5595   42.4014  -17.0191 N   0  0  0  0  0  0  0  0  0  0  0  0
  -19.8401   41.2680  -17.0346 C   0  0  0  0  0  0  0  0  0  0  0  0
  -19.3845   41.1331  -18.3292 C   0  0  0  0  0  0  0  0  0  0  0  0
  -19.8476   42.2007  -19.0640 C   0  0  0  0  0  0  0  0  0  0  0  0
  -19.3743   40.4784  -21.5508 C   0  0  0  0  0  0  0  0  0  0  0  0
  1  2  1  0
  2  3  1  0
  3  4  2  0
  3  5  2  0
  3  6  1  0
  6  7  1  0
  7  8  2  0
  8  9  1  0
  9 10  2  0
 10 11  1  0
 11 12  1  0
 12 13  2  0
 13 14  1  0
 14 15  2  0
 15 16  1  0
 15 17  1  0
 17 18  2  0
 18 19  1  0
 10 20  1  0
 20 21  1  0
 21 22  2  0
 22 23  1  0
 23 24  1  0
 23 25  1  0
 25 26  2  0
 25 27  1  0
 27 28  1  0
 28 29  1  0
 29 30  2  0
 30 31  1  0
 20 32  2  0
 32  7  1  0
 18 12  1  0
 31 21  1  0
 31 27  2  0
M  END
$$$$
