
     RDKit          3D

 29 32  0  0  0  0  0  0  0  0999 V2000
  -21.7635   34.2509  -21.4006 C   0  0  0  0  0  0  0  0  0  0  0  0
  -20.3729   34.6411  -21.8501 C   0  0  1  0  0  0  0  0  0  0  0  0
  -20.4330   34.7743  -23.3778 C   0  0  0  0  0  0  0  0  0  0  0  0
  -21.2386   35.8984  -23.5129 O   0  0  0  0  0  0  0  0  0  0  0  0
  -20.9850   36.7654  -22.4820 C   0  0  2  0  0  0  0  0  0  0  0  0
  -20.2683   37.9703  -22.9854 C   0  0  0  0  0  0  0  0  0  0  0  0
  -19.5744   38.7454  -21.9973 N   0  0  0  0  0  0  0  0  0  0  0  0
  -19.3012   40.0403  -22.2355 C   0  0  0  0  0  0  0  0  0  0  0  0
  -18.6284   40.8718  -21.3473 C   0  0  0  0  0  0  0  0  0  0  0  0
  -18.4065   42.2546  -21.7468 C   0  0  0  0  0  0  0  0  0  0  0  0
  -19.0689   42.7150  -22.7494 O   0  0  0  0  0  0  0  0  0  0  0  0
  -17.5191   43.1552  -21.1293 N   0  0  0  0  0  0  0  0  0  0  0  0
  -17.3625   44.5272  -21.5723 C   0  0  0  0  0  0  0  0  0  0  0  0
  -16.1768   45.1992  -20.9997 C   0  0  0  0  0  0  0  0  0  0  0  0
  -14.9242   44.7567  -21.3139 C   0  0  0  0  0  0  0  0  0  0  0  0
  -13.8272   45.4235  -20.7549 C   0  0  0  0  0  0  0  0  0  0  0  0
  -13.9943   46.4989  -19.9091 C   0  0  0  0  0  0  0  0  0  0  0  0
  -12.9508   47.1565  -19.3588 F   0  0  0  0  0  0  0  0  0  0  0  0
  -15.2755   46.9345  -19.6013 C   0  0  0  0  0  0  0  0  0  0  0  0
  -16.3641   46.2855  -20.1459 C   0  0  0  0  0  0  0  0  0  0  0  0
  -17.6345   46.6554  -19.8903 F   0  0  0  0  0  0  0  0  0  0  0  0
  -18.2306   40.3160  -20.1671 C   0  0  0  0  0  0  0  0  0  0  0  0
  -17.6267   40.9649  -19.3095 O   0  0  0  0  0  0  0  0  0  0  0  0
  -18.4990   38.9967  -19.9033 C   0  0  0  0  0  0  0  0  0  0  0  0
  -18.1237   38.3683  -18.7246 O   0  0  0  0  0  0  0  0  0  0  0  0
  -19.1781   38.2176  -20.8368 C   0  0  0  0  0  0  0  0  0  0  0  0
  -19.4829   36.8136  -20.5712 C   0  0  0  0  0  0  0  0  0  0  0  0
  -19.1346   36.2640  -19.4990 O   0  0  0  0  0  0  0  0  0  0  0  0
  -20.1796   36.0223  -21.5085 N   0  0  0  0  0  0  0  0  0  0  0  0
  2  1  1  1
  2  3  1  0
  3  4  1  0
  4  5  1  0
  5  6  1  6
  6  7  1  0
  7  8  1  0
  8  9  2  0
  9 10  1  0
 10 11  2  0
 10 12  1  0
 12 13  1  0
 13 14  1  0
 14 15  2  0
 15 16  1  0
 16 17  2  0
 17 18  1  0
 17 19  1  0
 19 20  2  0
 20 21  1  0
  9 22  1  0
 22 23  2  0
 22 24  1  0
 24 25  1  0
 24 26  2  0
 26 27  1  0
 27 28  2  0
 27 29  1  0
 29  2  1  0
 29  5  1  0
 26  7  1  0
 20 14  1  0
M  END
$$$$
