
     RDKit          3D

 25 28  0  0  0  0  0  0  0  0999 V2000
  -18.3598   37.1023  -21.1488 C   0  0  0  0  0  0  0  0  0  0  0  0
  -18.2059   38.4048  -21.8347 C   0  0  0  0  0  0  0  0  0  0  0  0
  -17.1542   38.6504  -22.3913 O   0  0  0  0  0  0  0  0  0  0  0  0
  -19.2967   39.3990  -21.8534 C   0  0  1  0  0  0  0  0  0  0  0  0
  -20.2718   39.0770  -22.8072 O   0  0  0  0  0  0  0  0  0  0  0  0
  -19.9108   39.5844  -20.4842 C   0  0  0  0  0  0  0  0  0  0  0  0
  -19.2758   40.8211  -19.8839 C   0  0  0  0  0  0  0  0  0  0  0  0
  -18.2602   41.2864  -20.9086 C   0  0  0  0  0  0  0  0  0  0  0  0
  -18.0670   42.7691  -20.7811 C   0  0  0  0  0  0  0  0  0  0  0  0
  -16.7106   43.1214  -21.3592 C   0  0  0  0  0  0  0  0  0  0  0  0
  -16.3359   44.5515  -21.0835 C   0  0  2  0  0  0  0  0  0  0  0  0
  -15.2244   44.6595  -20.0630 C   0  0  0  0  0  0  0  0  0  0  0  0
  -17.5680   45.2486  -20.6348 C   0  0  0  0  0  0  0  0  0  0  0  0
  -17.4856   45.9995  -19.5550 C   0  0  0  0  0  0  0  0  0  0  0  0
  -18.6858   46.6915  -19.0997 C   0  0  0  0  0  0  0  0  0  0  0  0
  -18.5981   47.7297  -18.3843 O   0  0  0  0  0  0  0  0  0  0  0  0
  -19.9915   46.1176  -19.5167 C   0  0  0  0  0  0  0  0  0  0  0  0
  -19.9109   45.9728  -21.0323 C   0  0  0  0  0  0  0  0  0  0  0  0
  -18.7909   45.0400  -21.4432 C   0  0  1  0  0  0  0  0  0  0  0  0
  -18.4390   45.4083  -22.8694 C   0  0  0  0  0  0  0  0  0  0  0  0
  -19.1825   43.5941  -21.3088 C   0  0  0  0  0  0  0  0  0  0  0  0
  -19.7549   43.0900  -22.6115 C   0  0  0  0  0  0  0  0  0  0  0  0
  -20.0100   41.6220  -22.6084 C   0  0  0  0  0  0  0  0  0  0  0  0
  -18.8205   40.7989  -22.1832 C   0  0  2  0  0  0  0  0  0  0  0  0
  -17.8215   40.6754  -23.3016 C   0  0  0  0  0  0  0  0  0  0  0  0
  1  2  1  0
  2  3  2  0
  2  4  1  0
  4  5  1  6
  4  6  1  0
  6  7  1  0
  7  8  1  0
  8  9  1  0
  9 10  1  0
 10 11  1  0
 11 12  1  1
 11 13  1  0
 13 14  2  0
 14 15  1  0
 15 16  2  0
 15 17  1  0
 17 18  1  0
 18 19  1  0
 19 20  1  6
 19 21  1  0
 21 22  1  0
 22 23  1  0
 23 24  1  0
 24 25  1  6
 24  4  1  0
 24  8  1  0
 21  9  1  0
 19 13  1  0
M  END
$$$$
