
     RDKit          3D

 35 38  0  0  0  0  0  0  0  0999 V2000
  -22.3802   40.8256  -25.7239 C   0  0  0  0  0  0  0  0  0  0  0  0
  -21.8003   39.7784  -26.4997 N   0  0  0  0  0  0  0  0  0  0  0  0
  -22.1291   38.4464  -26.1059 C   0  0  1  0  0  0  0  0  0  0  0  0
  -21.5931   37.3949  -27.0380 C   0  0  0  0  0  0  0  0  0  0  0  0
  -21.7430   38.1600  -24.7047 C   0  0  0  0  0  0  0  0  0  0  0  0
  -22.5661   38.3152  -23.7434 O   0  0  0  0  0  0  0  0  0  0  0  0
  -20.4583   37.7017  -24.3232 N   0  0  0  0  0  0  0  0  0  0  0  0
  -20.0703   37.6766  -22.8749 C   0  0  2  0  0  0  0  0  0  0  0  0
  -19.5250   38.9947  -22.5409 C   0  0  0  0  0  0  0  0  0  0  0  0
  -18.5951   39.4402  -23.3071 O   0  0  0  0  0  0  0  0  0  0  0  0
  -19.9174   39.8454  -21.4603 N   0  0  0  0  0  0  0  0  0  0  0  0
  -20.8154   39.5921  -20.3623 C   0  0  0  0  0  0  0  0  0  0  0  0
  -21.4511   40.9577  -20.0690 C   0  0  0  0  0  0  0  0  0  0  0  0
  -20.7965   41.9121  -21.0373 C   0  0  0  0  0  0  0  0  0  0  0  0
  -19.4737   41.2142  -21.2596 C   0  0  1  0  0  0  0  0  0  0  0  0
  -18.6213   41.3943  -20.0619 C   0  0  0  0  0  0  0  0  0  0  0  0
  -18.6963   40.6002  -19.0985 O   0  0  0  0  0  0  0  0  0  0  0  0
  -17.6904   42.4597  -19.9465 N   0  0  0  0  0  0  0  0  0  0  0  0
  -16.5725   42.3140  -19.0766 C   0  0  0  0  0  0  0  0  0  0  0  0
  -16.4281   41.1153  -17.7724 S   0  0  0  0  0  0  0  0  0  0  0  0
  -14.7243   41.7467  -17.2906 N   0  0  0  0  0  0  0  0  0  0  0  0
  -14.5876   42.5656  -18.0275 N   0  0  0  0  0  0  0  0  0  0  0  0
  -15.3884   43.0042  -18.9964 C   0  0  0  0  0  0  0  0  0  0  0  0
  -15.0800   44.1266  -19.9156 C   0  0  0  0  0  0  0  0  0  0  0  0
  -15.8304   44.3128  -21.0660 C   0  0  0  0  0  0  0  0  0  0  0  0
  -15.5867   45.3507  -21.9448 C   0  0  0  0  0  0  0  0  0  0  0  0
  -14.5659   46.2543  -21.6990 C   0  0  0  0  0  0  0  0  0  0  0  0
  -13.8170   46.0739  -20.5569 C   0  0  0  0  0  0  0  0  0  0  0  0
  -14.0674   45.0254  -19.6740 C   0  0  0  0  0  0  0  0  0  0  0  0
  -18.9936   36.6325  -22.7734 C   0  0  0  0  0  0  0  0  0  0  0  0
  -19.4776   35.2534  -23.1785 C   0  0  0  0  0  0  0  0  0  0  0  0
  -20.2564   34.5616  -22.0769 C   0  0  0  0  0  0  0  0  0  0  0  0
  -19.2493   34.3281  -20.9399 C   0  0  0  0  0  0  0  0  0  0  0  0
  -18.9498   35.7476  -20.4201 C   0  0  0  0  0  0  0  0  0  0  0  0
  -18.2385   36.5105  -21.5192 C   0  0  0  0  0  0  0  0  0  0  0  0
  1  2  1  0
  2  3  1  0
  3  4  1  6
  3  5  1  0
  5  6  2  0
  5  7  1  0
  8  7  1  6
  8  9  1  0
  9 10  2  0
  9 11  1  0
 11 12  1  0
 12 13  1  0
 13 14  1  0
 14 15  1  0
 15 16  1  1
 16 17  2  0
 16 18  1  0
 18 19  1  0
 19 20  1  0
 20 21  1  0
 21 22  2  0
 22 23  1  0
 23 24  1  0
 24 25  2  0
 25 26  1  0
 26 27  2  0
 27 28  1  0
 28 29  2  0
  8 30  1  0
 30 31  1  0
 31 32  1  0
 32 33  1  0
 33 34  1  0
 34 35  1  0
 15 11  1  0
 23 19  2  0
 29 24  1  0
 35 30  1  0
M  END
$$$$
