
     RDKit          3D

 33 37  0  0  0  0  0  0  0  0999 V2000
  -19.1201   37.8167  -19.6417 O   0  0  0  0  0  0  0  0  0  0  0  0
  -18.7067   38.6430  -20.5103 C   0  0  0  0  0  0  0  0  0  0  0  0
  -18.5049   40.0090  -20.2148 N   0  0  0  0  0  0  0  0  0  0  0  0
  -18.4925   40.9656  -21.2898 C   0  0  2  0  0  0  0  0  0  0  0  0
  -17.8417   42.2396  -20.8948 C   0  0  0  0  0  0  0  0  0  0  0  0
  -17.2837   42.3419  -19.6484 C   0  0  0  0  0  0  0  0  0  0  0  0
  -16.6529   43.5123  -19.2107 C   0  0  0  0  0  0  0  0  0  0  0  0
  -16.5684   44.6127  -20.0211 C   0  0  0  0  0  0  0  0  0  0  0  0
  -15.9534   45.8367  -19.6699 N   0  0  0  0  0  0  0  0  0  0  0  0
  -16.4055   47.0855  -20.1898 C   0  0  0  0  0  0  0  0  0  0  0  0
  -15.2247   47.8935  -20.7387 C   0  0  0  0  0  0  0  0  0  0  0  0
  -14.0137   47.4989  -20.2326 O   0  0  0  0  0  0  0  0  0  0  0  0
  -14.1743   47.2367  -18.8770 C   0  0  0  0  0  0  0  0  0  0  0  0
  -14.8138   45.8731  -18.7487 C   0  0  0  0  0  0  0  0  0  0  0  0
  -17.1429   44.5023  -21.3000 C   0  0  0  0  0  0  0  0  0  0  0  0
  -17.7610   43.3451  -21.7197 C   0  0  0  0  0  0  0  0  0  0  0  0
  -19.9524   41.2458  -21.6576 C   0  0  0  0  0  0  0  0  0  0  0  0
  -20.8506   41.7516  -20.8045 C   0  0  0  0  0  0  0  0  0  0  0  0
  -22.1130   41.9788  -21.1687 C   0  0  0  0  0  0  0  0  0  0  0  0
  -22.1446   41.4487  -22.9078 S   0  0  0  0  0  0  0  0  0  0  0  0
  -20.3849   40.9667  -22.9348 C   0  0  0  0  0  0  0  0  0  0  0  0
  -17.7823   40.4359  -22.5002 C   0  0  0  0  0  0  0  0  0  0  0  0
  -18.0065   38.9983  -22.7639 C   0  0  0  0  0  0  0  0  0  0  0  0
  -17.7568   38.4671  -24.0574 O   0  0  0  0  0  0  0  0  0  0  0  0
  -18.4347   38.1603  -21.8484 C   0  0  0  0  0  0  0  0  0  0  0  0
  -18.6787   36.4254  -22.2673 S   0  0  0  0  0  0  0  0  0  0  0  0
  -20.4024   36.0376  -22.3841 C   0  0  0  0  0  0  0  0  0  0  0  0
  -21.3312   37.0255  -22.6316 C   0  0  0  0  0  0  0  0  0  0  0  0
  -22.6760   36.7110  -22.7219 C   0  0  0  0  0  0  0  0  0  0  0  0
  -23.0825   35.4035  -22.5628 C   0  0  0  0  0  0  0  0  0  0  0  0
  -22.1512   34.3939  -22.3117 C   0  0  0  0  0  0  0  0  0  0  0  0
  -20.8131   34.7267  -22.2249 C   0  0  0  0  0  0  0  0  0  0  0  0
  -19.6337   33.4655  -21.9073 Cl  0  0  0  0  0  0  0  0  0  0  0  0
  1  2  2  0
  2  3  1  0
  3  4  1  0
  4  5  1  1
  5  6  2  0
  6  7  1  0
  7  8  2  0
  8  9  1  0
  9 10  1  0
 10 11  1  0
 11 12  1  0
 12 13  1  0
 13 14  1  0
  8 15  1  0
 15 16  2  0
  4 17  1  0
 17 18  1  0
 18 19  2  0
 19 20  1  0
 20 21  1  0
  4 22  1  0
 22 23  1  0
 23 24  1  0
 23 25  2  0
 25 26  1  0
 26 27  1  0
 27 28  2  0
 28 29  1  0
 29 30  2  0
 30 31  1  0
 31 32  2  0
 32 33  1  0
 25  2  1  0
 32 27  1  0
 16  5  1  0
 21 17  2  0
 14  9  1  0
M  END
$$$$
