
     RDKit          3D

 35 37  0  0  0  0  0  0  0  0999 V2000
  -18.7280   42.2864  -19.4360 C   0  0  0  0  0  0  0  0  0  0  0  0
  -17.6653   41.3845  -18.8829 C   0  0  0  0  0  0  0  0  0  0  0  0
  -16.5823   42.2431  -18.2593 C   0  0  0  0  0  0  0  0  0  0  0  0
  -17.0652   40.4634  -19.9300 C   0  0  0  0  0  0  0  0  0  0  0  0
  -18.0365   39.6241  -20.5469 N   0  0  0  0  0  0  0  0  0  0  0  0
  -18.7724   40.2562  -21.5906 C   0  0  0  0  0  0  0  0  0  0  0  0
  -17.8695   40.7302  -22.7297 C   0  0  1  0  0  0  0  0  0  0  0  0
  -17.4982   39.5928  -23.4410 O   0  0  0  0  0  0  0  0  0  0  0  0
  -18.6568   41.6492  -23.6363 C   0  0  2  0  0  0  0  0  0  0  0  0
  -17.9162   41.9327  -24.9220 C   0  0  0  0  0  0  0  0  0  0  0  0
  -18.8322   42.4260  -25.9812 C   0  0  0  0  0  0  0  0  0  0  0  0
  -19.6733   41.5782  -26.6775 C   0  0  0  0  0  0  0  0  0  0  0  0
  -20.5214   42.0433  -27.6606 C   0  0  0  0  0  0  0  0  0  0  0  0
  -20.5317   43.3746  -27.9549 C   0  0  0  0  0  0  0  0  0  0  0  0
  -19.7075   44.2380  -27.2796 C   0  0  0  0  0  0  0  0  0  0  0  0
  -18.8691   43.7629  -26.3045 C   0  0  0  0  0  0  0  0  0  0  0  0
  -19.1213   42.8262  -22.9778 N   0  0  0  0  0  0  0  0  0  0  0  0
  -20.4884   43.1859  -22.9123 C   0  0  0  0  0  0  0  0  0  0  0  0
  -21.3612   42.3121  -22.7023 O   0  0  0  0  0  0  0  0  0  0  0  0
  -20.9562   44.4793  -23.0688 O   0  0  0  0  0  0  0  0  0  0  0  0
  -21.3197   45.2480  -21.9916 C   0  0  1  0  0  0  0  0  0  0  0  0
  -21.4891   44.4619  -20.6867 C   0  0  0  0  0  0  0  0  0  0  0  0
  -21.3244   45.5846  -19.6728 C   0  0  0  0  0  0  0  0  0  0  0  0
  -20.8827   46.6951  -20.3465 O   0  0  0  0  0  0  0  0  0  0  0  0
  -20.3133   46.2763  -21.5511 C   0  0  0  0  0  0  0  0  0  0  0  0
  -17.3798   38.1038  -20.9185 S   0  0  0  0  0  6  0  0  0  0  0  0
  -16.6099   37.5103  -19.7606 O   0  0  0  0  0  0  0  0  0  0  0  0
  -16.4226   38.1490  -22.0745 O   0  0  0  0  0  0  0  0  0  0  0  0
  -18.6531   36.9810  -21.3053 C   0  0  0  0  0  0  0  0  0  0  0  0
  -18.9570   36.5890  -22.5906 C   0  0  0  0  0  0  0  0  0  0  0  0
  -19.9969   35.6796  -22.8121 C   0  0  0  0  0  0  0  0  0  0  0  0
  -20.7288   35.1637  -21.7634 C   0  0  0  0  0  0  0  0  0  0  0  0
  -21.7929   34.2374  -21.9454 N   0  0  0  0  0  0  0  0  0  0  0  0
  -20.4256   35.5535  -20.4891 C   0  0  0  0  0  0  0  0  0  0  0  0
  -19.4005   36.4492  -20.2783 C   0  0  0  0  0  0  0  0  0  0  0  0
  1  2  1  0
  2  3  1  0
  2  4  1  0
  4  5  1  0
  5  6  1  0
  6  7  1  0
  7  8  1  6
  7  9  1  0
  9 10  1  6
 10 11  1  0
 11 12  2  0
 12 13  1  0
 13 14  2  0
 14 15  1  0
 15 16  2  0
  9 17  1  0
 17 18  1  0
 18 19  2  0
 18 20  1  0
 21 20  1  6
 21 22  1  0
 22 23  1  0
 23 24  1  0
 24 25  1  0
  5 26  1  0
 26 27  2  0
 26 28  2  0
 26 29  1  0
 29 30  2  0
 30 31  1  0
 31 32  2  0
 32 33  1  0
 32 34  1  0
 34 35  2  0
 16 11  1  0
 25 21  1  0
 35 29  1  0
M  END
$$$$
