
     RDKit          3D

 27 29  0  0  0  0  0  0  0  0999 V2000
  -18.2645   41.7237  -22.8136 C   0  0  0  0  0  0  0  0  0  0  0  0
  -18.9689   41.2322  -21.6302 N   0  0  0  0  0  0  0  0  0  0  0  0
  -19.9617   40.2100  -21.8541 C   0  0  0  0  0  0  0  0  0  0  0  0
  -19.3147   38.8520  -21.8192 C   0  0  0  0  0  0  0  0  0  0  0  0
  -18.1000   38.7905  -21.7119 O   0  0  0  0  0  0  0  0  0  0  0  0
  -20.0760   37.6712  -21.9069 N   0  0  0  0  0  0  0  0  0  0  0  0
  -19.6874   36.3444  -21.7069 C   0  0  0  0  0  0  0  0  0  0  0  0
  -20.6484   35.3506  -21.9569 C   0  0  0  0  0  0  0  0  0  0  0  0
  -20.4121   34.0149  -21.7927 C   0  0  0  0  0  0  0  0  0  0  0  0
  -19.1866   33.5891  -21.3639 C   0  0  0  0  0  0  0  0  0  0  0  0
  -18.9391   32.2598  -21.1973 F   0  0  0  0  0  0  0  0  0  0  0  0
  -18.2184   34.5288  -21.1077 C   0  0  0  0  0  0  0  0  0  0  0  0
  -16.9999   34.1320  -20.6832 F   0  0  0  0  0  0  0  0  0  0  0  0
  -18.4658   35.9014  -21.2776 C   0  0  0  0  0  0  0  0  0  0  0  0
  -17.4571   36.7265  -20.9854 F   0  0  0  0  0  0  0  0  0  0  0  0
  -18.7086   41.7168  -20.3354 C   0  0  0  0  0  0  0  0  0  0  0  0
  -19.4399   41.3290  -19.3873 O   0  0  0  0  0  0  0  0  0  0  0  0
  -17.6275   42.6503  -20.0387 C   0  0  0  0  0  0  0  0  0  0  0  0
  -16.3597   42.4067  -20.5391 C   0  0  0  0  0  0  0  0  0  0  0  0
  -15.3009   43.2515  -20.2926 C   0  0  0  0  0  0  0  0  0  0  0  0
  -15.5481   44.3849  -19.5067 C   0  0  0  0  0  0  0  0  0  0  0  0
  -16.8024   44.6396  -19.0029 C   0  0  0  0  0  0  0  0  0  0  0  0
  -17.8664   43.7669  -19.2657 C   0  0  0  0  0  0  0  0  0  0  0  0
  -16.9890   45.7749  -18.2322 O   0  0  0  0  0  0  0  0  0  0  0  0
  -15.8362   46.2707  -17.5410 C   0  0  0  0  0  0  0  0  0  0  0  0
  -14.8034   46.5156  -18.6296 C   0  0  0  0  0  0  0  0  0  0  0  0
  -14.5277   45.2676  -19.2254 O   0  0  0  0  0  0  0  0  0  0  0  0
  1  2  1  0
  2  3  1  0
  3  4  1  0
  4  5  2  0
  4  6  1  0
  6  7  1  0
  7  8  2  0
  8  9  1  0
  9 10  2  0
 10 11  1  0
 10 12  1  0
 12 13  1  0
 12 14  2  0
 14 15  1  0
  2 16  1  0
 16 17  2  0
 16 18  1  0
 18 19  2  0
 19 20  1  0
 20 21  2  0
 21 22  1  0
 22 23  2  0
 22 24  1  0
 24 25  1  0
 25 26  1  0
 26 27  1  0
 14  7  1  0
 23 18  1  0
 27 21  1  0
M  END
$$$$
