
     RDKit          3D

 19 19  0  0  0  0  0  0  0  0999 V2000
  -18.7325   39.9016  -20.9512 Cl  0  0  0  0  0  0  0  0  0  0  0  0
  -19.7066   35.4352  -21.0536 O   0  0  0  0  0  0  0  0  0  0  0  0
  -18.5387   35.8229  -21.2628 C   0  0  0  0  0  0  0  0  0  0  0  0
  -17.5388   34.8738  -21.3453 O   0  0  0  0  0  0  0  0  0  0  0  0
  -18.2739   37.2405  -21.4105 C   0  0  0  0  0  0  0  0  0  0  0  0
  -17.0904   37.6756  -21.6257 O   0  0  0  0  0  0  0  0  0  0  0  0
  -19.3417   38.1717  -21.3162 N   0  0  0  0  0  0  0  0  0  0  0  0
  -19.1274   39.5775  -21.4552 C   0  0  0  0  0  0  0  0  0  0  0  0
  -19.1910   40.4905  -22.9778 S   0  0  0  0  0  0  0  0  0  0  0  0
  -18.8240   42.0834  -22.2581 C   0  0  0  0  0  0  0  0  0  0  0  0
  -18.6851   41.8008  -20.9447 C   0  0  0  0  0  0  0  0  0  0  0  0
  -18.8400   40.5174  -20.5302 C   0  0  0  0  0  0  0  0  0  0  0  0
  -18.7079   40.0891  -19.0925 C   0  0  0  0  0  0  0  0  0  0  0  0
  -17.6082   39.7307  -18.6201 O   0  0  0  0  0  0  0  0  0  0  0  0
  -19.8235   40.0897  -18.2714 O   0  0  0  0  0  0  0  0  0  0  0  0
  -18.3562   43.0305  -20.0748 C   0  0  0  0  0  0  0  0  0  0  0  0
  -19.0208   44.1916  -20.7810 C   0  0  0  0  0  0  0  0  0  0  0  0
  -18.2420   44.3636  -22.0161 N   0  0  0  0  0  0  0  0  0  0  0  0
  -18.7040   43.3753  -22.9245 C   0  0  0  0  0  0  0  0  0  0  0  0
  2  3  2  0
  3  4  1  0
  3  5  1  0
  5  6  2  0
  5  7  1  0
  7  8  1  0
  8  9  1  0
  9 10  1  0
 10 11  2  0
 11 12  1  0
 12 13  1  0
 13 14  2  0
 13 15  1  0
 11 16  1  0
 16 17  1  0
 17 18  1  0
 18 19  1  0
 12  8  2  0
 19 10  1  0
M  END
$$$$
