
     RDKit          3D

 32 35  0  0  0  0  0  0  0  0999 V2000
  -12.2057   45.9087  -16.6446 C   0  0  0  0  0  0  0  0  0  0  0  0
  -12.2198   46.4166  -17.9651 O   0  0  0  0  0  0  0  0  0  0  0  0
  -13.3761   46.2153  -18.7121 C   0  0  0  0  0  0  0  0  0  0  0  0
  -13.3893   46.3036  -20.0867 C   0  0  0  0  0  0  0  0  0  0  0  0
  -14.5606   46.0986  -20.8258 C   0  0  0  0  0  0  0  0  0  0  0  0
  -15.6910   45.8057  -20.1021 C   0  0  0  0  0  0  0  0  0  0  0  0
  -17.0087   45.5758  -20.8590 C   0  0  0  0  0  0  0  0  0  0  0  0
  -16.7948   44.2980  -21.5788 C   0  0  0  0  0  0  0  0  0  0  0  0
  -16.4637   43.1009  -20.9106 N   0  0  0  0  0  0  0  0  0  0  0  0
  -16.2463   41.8034  -21.3968 C   0  0  0  0  0  0  0  0  0  0  0  0
  -15.1665   41.5266  -21.9201 O   0  0  0  0  0  0  0  0  0  0  0  0
  -17.2403   40.7130  -21.3278 C   0  0  0  0  0  0  0  0  0  0  0  0
  -17.8077   40.3673  -20.1173 C   0  0  0  0  0  0  0  0  0  0  0  0
  -18.7413   39.3681  -19.9509 C   0  0  0  0  0  0  0  0  0  0  0  0
  -19.1437   38.6617  -21.0476 C   0  0  0  0  0  0  0  0  0  0  0  0
  -20.1070   37.6260  -20.8952 N   0  0  0  0  0  0  0  0  0  0  0  0
  -21.1319   37.4136  -21.8297 C   0  0  0  0  0  0  0  0  0  0  0  0
  -21.2015   38.1736  -22.8232 O   0  0  0  0  0  0  0  0  0  0  0  0
  -22.1070   36.3189  -21.6468 C   0  0  0  0  0  0  0  0  0  0  0  0
  -23.1362   35.9838  -22.4767 C   0  0  0  0  0  0  0  0  0  0  0  0
  -23.7761   34.9087  -21.9116 C   0  0  0  0  0  0  0  0  0  0  0  0
  -23.0910   34.6379  -20.7433 C   0  0  0  0  0  0  0  0  0  0  0  0
  -22.1175   35.5021  -20.6406 O   0  0  0  0  0  0  0  0  0  0  0  0
  -18.6084   38.9663  -22.2812 C   0  0  0  0  0  0  0  0  0  0  0  0
  -17.6570   39.9925  -22.4173 C   0  0  0  0  0  0  0  0  0  0  0  0
  -17.0890   46.7054  -21.8583 C   0  0  0  0  0  0  0  0  0  0  0  0
  -18.5082   47.1889  -22.0671 C   0  0  0  0  0  0  0  0  0  0  0  0
  -19.0204   47.4963  -20.7847 O   0  0  0  0  0  0  0  0  0  0  0  0
  -19.3771   46.2314  -20.2736 C   0  0  0  0  0  0  0  0  0  0  0  0
  -18.0898   45.5743  -19.8671 C   0  0  0  0  0  0  0  0  0  0  0  0
  -15.7269   45.7067  -18.7305 C   0  0  0  0  0  0  0  0  0  0  0  0
  -14.5593   45.9132  -18.0269 C   0  0  0  0  0  0  0  0  0  0  0  0
  1  2  1  0
  2  3  1  0
  3  4  2  0
  4  5  1  0
  5  6  2  0
  6  7  1  0
  7  8  1  0
  8  9  1  0
  9 10  1  0
 10 11  2  0
 10 12  1  0
 12 13  2  0
 13 14  1  0
 14 15  2  0
 15 16  1  0
 16 17  1  0
 17 18  2  0
 17 19  1  0
 19 20  2  0
 20 21  1  0
 21 22  2  0
 22 23  1  0
 15 24  1  0
 24 25  2  0
  7 26  1  0
 26 27  1  0
 27 28  1  0
 28 29  1  0
 29 30  1  0
  6 31  1  0
 31 32  2  0
 32  3  1  0
 30  7  1  0
 25 12  1  0
 23 19  1  0
M  END
$$$$
