
     RDKit          3D

 27 30  0  0  0  0  0  0  0  0999 V2000
  -25.2982   14.6865  -34.8397 O   0  0  0  0  0  0  0  0  0  0  0  0
  -24.7344   15.0926  -33.6169 C   0  0  0  0  0  0  0  0  0  0  0  0
  -23.2480   14.8408  -33.5779 C   0  0  0  0  0  0  0  0  0  0  0  0
  -22.7022   15.2438  -32.3412 N   0  0  0  0  0  0  0  0  0  0  0  0
  -22.4407   14.2973  -31.3479 C   0  0  0  0  0  0  0  0  0  0  0  0
  -21.1339   14.4627  -30.5906 C   0  0  0  0  0  0  0  0  0  0  0  0
  -20.8513   15.8355  -30.4723 N   0  0  0  0  0  0  0  0  0  0  0  0
  -19.5755   16.2900  -30.1444 C   0  0  0  0  0  0  0  0  0  0  0  0
  -18.6674   15.1743  -29.6381 C   0  0  0  0  0  0  0  0  0  0  0  0
  -17.3875   15.7611  -29.0835 C   0  0  0  0  0  0  0  0  0  0  0  0
  -16.4897   16.1719  -30.1243 N   0  0  0  0  0  0  0  0  0  0  0  0
  -16.4083   17.5825  -30.3749 C   0  0  0  0  0  0  0  0  0  0  0  0
  -17.1839   18.4713  -29.6213 C   0  0  0  0  0  0  0  0  0  0  0  0
  -17.1593   19.8389  -29.8148 C   0  0  0  0  0  0  0  0  0  0  0  0
  -16.3518   20.3862  -30.7764 C   0  0  0  0  0  0  0  0  0  0  0  0
  -15.5774   19.5409  -31.5334 C   0  0  0  0  0  0  0  0  0  0  0  0
  -15.6202   18.1775  -31.3211 C   0  0  0  0  0  0  0  0  0  0  0  0
  -14.5954   17.1561  -32.3665 S   0  0  0  0  0  0  0  0  0  0  0  0
  -14.8587   15.4837  -31.8642 C   0  0  0  0  0  0  0  0  0  0  0  0
  -14.1590   14.5174  -32.5129 C   0  0  0  0  0  0  0  0  0  0  0  0
  -14.2759   13.1787  -32.2051 C   0  0  0  0  0  0  0  0  0  0  0  0
  -15.1495   12.8597  -31.1916 C   0  0  0  0  0  0  0  0  0  0  0  0
  -15.3166   11.1676  -30.7699 Cl  0  0  0  0  0  0  0  0  0  0  0  0
  -15.8559   13.8427  -30.5379 C   0  0  0  0  0  0  0  0  0  0  0  0
  -15.7365   15.1921  -30.8504 C   0  0  0  0  0  0  0  0  0  0  0  0
  -21.8937   16.7623  -30.7086 C   0  0  0  0  0  0  0  0  0  0  0  0
  -22.4915   16.6136  -32.1044 C   0  0  0  0  0  0  0  0  0  0  0  0
  1  2  1  0
  2  3  1  0
  3  4  1  0
  4  5  1  0
  5  6  1  0
  6  7  1  0
  7  8  1  0
  8  9  1  0
  9 10  1  0
 10 11  1  0
 11 12  1  0
 12 13  2  0
 13 14  1  0
 14 15  2  0
 15 16  1  0
 16 17  2  0
 17 18  1  0
 18 19  1  0
 19 20  2  0
 20 21  1  0
 21 22  2  0
 22 23  1  0
 22 24  1  0
 24 25  2  0
  7 26  1  0
 26 27  1  0
 27  4  1  0
 25 11  1  0
 17 12  1  0
 25 19  1  0
M  END
$$$$
