
     RDKit          3D

 34 38  0  0  0  0  0  0  0  0999 V2000
  -24.5241    3.6701  -31.0041 C   0  0  0  0  0  0  0  0  0  0  0  0
  -23.2516    3.9015  -30.4519 O   0  0  0  0  0  0  0  0  0  0  0  0
  -22.2560    2.9614  -30.6254 C   0  0  0  0  0  0  0  0  0  0  0  0
  -22.4327    1.9058  -31.4896 C   0  0  0  0  0  0  0  0  0  0  0  0
  -21.4203    0.9757  -31.6478 C   0  0  0  0  0  0  0  0  0  0  0  0
  -20.2100    1.0478  -30.9699 C   0  0  0  0  0  0  0  0  0  0  0  0
  -19.1538   -0.0003  -31.1914 C   0  0  0  0  0  0  0  0  0  0  0  0
  -19.7499   -1.3760  -30.9983 C   0  0  0  0  0  0  0  0  0  0  0  0
  -18.8863   -2.4408  -31.2168 N   0  0  0  0  0  0  0  0  0  0  0  0
  -18.7138   -2.9721  -32.5184 C   0  0  0  0  0  0  0  0  0  0  0  0
  -17.3430   -3.6711  -32.6403 C   0  0  0  0  0  0  0  0  0  0  0  0
  -16.3119   -2.9123  -31.9137 C   0  0  0  0  0  0  0  0  0  0  0  0
  -14.9530   -3.0671  -32.1321 N   0  0  0  0  0  0  0  0  0  0  0  0
  -14.1177   -3.3647  -33.2236 C   0  0  0  0  0  0  0  0  0  0  0  0
  -14.5090   -4.2907  -34.1930 N   0  0  0  0  0  0  0  0  0  0  0  0
  -13.5826   -4.3858  -35.1339 C   0  0  0  0  0  0  0  0  0  0  0  0
  -13.4327   -5.1181  -36.3026 C   0  0  0  0  0  0  0  0  0  0  0  0
  -12.3162   -4.9936  -37.0986 C   0  0  0  0  0  0  0  0  0  0  0  0
  -11.3147   -4.1212  -36.7340 C   0  0  0  0  0  0  0  0  0  0  0  0
  -11.4442   -3.3828  -35.5743 C   0  0  0  0  0  0  0  0  0  0  0  0
  -12.5643   -3.5218  -34.7962 C   0  0  0  0  0  0  0  0  0  0  0  0
  -12.9549   -2.9301  -33.6152 N   0  0  0  0  0  0  0  0  0  0  0  0
  -12.0732   -1.9623  -33.0046 C   0  0  0  0  0  0  0  0  0  0  0  0
  -12.6389   -0.5872  -33.0889 C   0  0  0  0  0  0  0  0  0  0  0  0
  -13.0490    0.1304  -32.0091 C   0  0  0  0  0  0  0  0  0  0  0  0
  -13.5947    1.4000  -32.1005 C   0  0  0  0  0  0  0  0  0  0  0  0
  -13.7337    1.9764  -33.3416 C   0  0  0  0  0  0  0  0  0  0  0  0
  -14.2551    3.2085  -33.5285 F   0  0  0  0  0  0  0  0  0  0  0  0
  -13.3265    1.2782  -34.4701 C   0  0  0  0  0  0  0  0  0  0  0  0
  -12.7864    0.0127  -34.3407 C   0  0  0  0  0  0  0  0  0  0  0  0
  -16.6171   -2.8977  -30.4207 C   0  0  0  0  0  0  0  0  0  0  0  0
  -18.0857   -2.9703  -30.2004 C   0  0  0  0  0  0  0  0  0  0  0  0
  -20.0397    2.1074  -30.1059 C   0  0  0  0  0  0  0  0  0  0  0  0
  -21.0477    3.0523  -29.9345 C   0  0  0  0  0  0  0  0  0  0  0  0
  1  2  1  0
  2  3  1  0
  3  4  2  0
  4  5  1  0
  5  6  2  0
  6  7  1  0
  7  8  1  0
  8  9  1  0
  9 10  1  0
 10 11  1  0
 11 12  1  0
 12 13  1  0
 13 14  1  0
 14 15  2  0
 15 16  1  0
 16 17  2  0
 17 18  1  0
 18 19  2  0
 19 20  1  0
 20 21  2  0
 21 22  1  0
 22 23  1  0
 23 24  1  0
 24 25  2  0
 25 26  1  0
 26 27  2  0
 27 28  1  0
 27 29  1  0
 29 30  2  0
 12 31  1  0
 31 32  1  0
  6 33  1  0
 33 34  2  0
 34  3  1  0
 32  9  1  0
 22 14  1  0
 30 24  1  0
 21 16  1  0
M  END
$$$$
