
     RDKit          3D

 23 24  0  0  0  0  0  0  0  0999 V2000
  -16.8619   31.3209  -24.5521 C   0  0  0  0  0  0  0  0  0  0  0  0
  -18.0619   32.2609  -24.4648 C   0  0  0  0  0  0  0  0  0  0  0  0
  -18.2864   32.5577  -23.0993 N   0  0  0  0  0  0  0  0  0  0  0  0
  -18.7789   31.5297  -22.2645 C   0  0  0  0  0  0  0  0  0  0  0  0
  -20.1244   31.9793  -21.7794 C   0  0  0  0  0  0  0  0  0  0  0  0
  -19.8914   33.4816  -21.6295 C   0  0  0  0  0  0  0  0  0  0  0  0
  -18.9477   33.7827  -22.7970 C   0  0  1  0  0  0  0  0  0  0  0  0
  -17.9020   34.7311  -22.2847 C   0  0  0  0  0  0  0  0  0  0  0  0
  -18.4641   35.7968  -21.4783 N   0  0  0  0  0  0  0  0  0  0  0  0
  -18.1804   37.1402  -21.7826 C   0  0  0  0  0  0  0  0  0  0  0  0
  -16.9685   37.3291  -22.2005 O   0  0  0  0  0  0  0  0  0  0  0  0
  -19.0745   38.2735  -21.6775 C   0  0  0  0  0  0  0  0  0  0  0  0
  -18.6250   39.4485  -21.0587 C   0  0  0  0  0  0  0  0  0  0  0  0
  -19.3910   40.5658  -20.9125 C   0  0  0  0  0  0  0  0  0  0  0  0
  -18.6744   41.9486  -20.1124 S   0  0  0  0  0  6  0  0  0  0  0  0
  -17.0051   42.1107  -20.5231 N   0  0  0  0  0  0  0  0  0  0  0  0
  -18.8209   41.8347  -18.6094 O   0  0  0  0  0  0  0  0  0  0  0  0
  -19.4151   43.1752  -20.5375 O   0  0  0  0  0  0  0  0  0  0  0  0
  -20.6801   40.5605  -21.3925 C   0  0  0  0  0  0  0  0  0  0  0  0
  -21.1600   39.4358  -22.0033 C   0  0  0  0  0  0  0  0  0  0  0  0
  -20.3493   38.2831  -22.1465 C   0  0  0  0  0  0  0  0  0  0  0  0
  -20.8886   37.1726  -22.7732 O   0  0  0  0  0  0  0  0  0  0  0  0
  -22.1562   37.1155  -23.3478 C   0  0  0  0  0  0  0  0  0  0  0  0
  1  2  1  0
  2  3  1  0
  3  4  1  0
  4  5  1  0
  5  6  1  0
  6  7  1  0
  7  8  1  1
  8  9  1  0
  9 10  1  0
 10 11  2  0
 10 12  1  0
 12 13  2  0
 13 14  1  0
 14 15  1  0
 15 16  1  0
 15 17  2  0
 15 18  2  0
 14 19  2  0
 19 20  1  0
 20 21  2  0
 21 22  1  0
 22 23  1  0
  7  3  1  0
 21 12  1  0
M  END
$$$$
