
     RDKit          3D

 30 30  0  0  0  0  0  0  0  0999 V2000
   10.9343   19.4548  -21.1590 C   0  0  0  0  0  0  0  0  0  0  0  0
    9.5271   19.2895  -20.7024 C   0  0  0  0  0  0  0  0  0  0  0  0
    9.2565   19.4491  -19.3312 N   0  0  0  0  0  0  0  0  0  0  0  0
    9.7535   18.4946  -18.4148 C   0  0  0  0  0  0  0  0  0  0  0  0
   11.2784   18.5239  -18.2606 C   0  0  0  0  0  0  0  0  0  0  0  0
    7.9382   19.9422  -19.1129 C   0  0  0  0  0  0  0  0  0  0  0  0
    6.8395   18.9674  -19.4789 C   0  0  0  0  0  0  0  0  0  0  0  0
    5.4814   19.5966  -19.1999 C   0  0  0  0  0  0  0  0  0  0  0  0
    4.3760   18.6270  -19.5759 C   0  0  0  0  0  0  0  0  0  0  0  0
    4.4362   17.3542  -18.8240 C   0  0  0  0  0  0  0  0  0  0  0  0
    3.0756   19.2449  -19.4513 N   0  0  0  0  0  0  0  0  0  0  0  0
    1.8313   18.6204  -19.6536 C   0  0  0  0  0  0  0  0  0  0  0  0
    1.2740   18.5591  -20.9261 C   0  0  0  0  0  0  0  0  0  0  0  0
    1.9060   19.1028  -22.0294 C   0  0  0  0  0  0  0  0  0  0  0  0
    1.3654   19.0562  -23.3101 C   0  0  0  0  0  0  0  0  0  0  0  0
    0.1493   18.4471  -23.5086 C   0  0  0  0  0  0  0  0  0  0  0  0
   -0.5469   18.3801  -25.1214 Cl  0  0  0  0  0  0  0  0  0  0  0  0
   -0.5182   17.8906  -22.4330 C   0  0  0  0  0  0  0  0  0  0  0  0
    0.0405   17.9487  -21.1622 C   0  0  0  0  0  0  0  0  0  0  0  0
   -0.6171   17.4100  -20.1226 N   0  0  0  0  0  0  0  0  0  0  0  0
   -0.1301   17.4398  -18.8706 C   0  0  0  0  0  0  0  0  0  0  0  0
   -0.8842   16.8739  -17.8527 C   0  0  0  0  0  0  0  0  0  0  0  0
   -0.3926   16.9214  -16.5699 C   0  0  0  0  0  0  0  0  0  0  0  0
    0.8313   17.5238  -16.3032 C   0  0  0  0  0  0  0  0  0  0  0  0
    1.2959   17.5510  -14.9797 O   0  0  0  0  0  0  0  0  0  0  0  0
    2.5443   18.1716  -14.7444 C   0  0  0  0  0  0  0  0  0  0  0  0
    1.5566   18.0759  -17.3316 C   0  0  0  0  0  0  0  0  0  0  0  0
    1.1038   18.0497  -18.6303 C   0  0  0  0  0  0  0  0  0  0  0  0
    5.3831   18.5315  -19.3514 Cl  0  0  0  0  0  0  0  0  0  0  0  0
    5.3777   18.5309  -19.3510 Cl  0  0  0  0  0  0  0  0  0  0  0  0
  1  2  1  0
  2  3  1  0
  3  4  1  0
  4  5  1  0
  3  6  1  0
  6  7  1  0
  7  8  1  0
  8  9  1  0
  9 10  1  0
  9 11  1  0
 11 12  1  0
 12 13  2  0
 13 14  1  0
 14 15  2  0
 15 16  1  0
 16 17  1  0
 16 18  2  0
 18 19  1  0
 19 20  2  0
 20 21  1  0
 21 22  2  0
 22 23  1  0
 23 24  2  0
 24 25  1  0
 25 26  1  0
 24 27  1  0
 27 28  2  0
 28 12  1  0
 19 13  1  0
 28 21  1  0
M  END
$$$$
