
     RDKit          3D

 30 33  0  0  0  0  0  0  0  0999 V2000
  -22.6672   38.1054  -22.0219 C   0  0  0  0  0  0  0  0  0  0  0  0
  -21.3540   38.2880  -21.5897 O   0  0  0  0  0  0  0  0  0  0  0  0
  -20.3461   37.3598  -21.6876 C   0  0  0  0  0  0  0  0  0  0  0  0
  -20.6544   36.0209  -22.0066 C   0  0  0  0  0  0  0  0  0  0  0  0
  -19.6855   35.0525  -22.1172 C   0  0  0  0  0  0  0  0  0  0  0  0
  -18.3787   35.4052  -21.9098 C   0  0  0  0  0  0  0  0  0  0  0  0
  -18.0693   36.6795  -21.6046 C   0  0  0  0  0  0  0  0  0  0  0  0
  -19.0490   37.6983  -21.4842 C   0  0  0  0  0  0  0  0  0  0  0  0
  -18.6033   39.0360  -21.1472 C   0  0  0  0  0  0  0  0  0  0  0  0
  -18.0254   39.2386  -20.0065 O   0  0  0  0  0  0  0  0  0  0  0  0
  -18.7249   40.1848  -21.9344 N   0  0  0  0  0  0  0  0  0  0  0  0
  -18.2369   41.4710  -21.4868 C   0  0  0  0  0  0  0  0  0  0  0  0
  -17.3252   41.5664  -20.4917 C   0  0  0  0  0  0  0  0  0  0  0  0
  -16.8966   42.8283  -20.0818 C   0  0  0  0  0  0  0  0  0  0  0  0
  -17.3776   43.9833  -20.6639 C   0  0  0  0  0  0  0  0  0  0  0  0
  -18.3066   43.8731  -21.6768 C   0  0  0  0  0  0  0  0  0  0  0  0
  -18.7412   42.5924  -22.0922 C   0  0  0  0  0  0  0  0  0  0  0  0
  -19.7046   42.6091  -23.1323 N   0  0  0  0  0  0  0  0  0  0  0  0
  -20.3708   43.7705  -23.6650 C   0  0  0  0  0  0  0  0  0  0  0  0
  -21.8805   43.5695  -23.5249 C   0  0  0  0  0  0  0  0  0  0  0  0
  -22.2834   42.2115  -23.7225 N   0  0  0  0  0  0  0  0  0  0  0  0
  -21.3731   41.3969  -24.4650 C   0  0  0  0  0  0  0  0  0  0  0  0
  -20.0629   41.3377  -23.7352 C   0  0  1  0  0  0  0  0  0  0  0  0
  -18.9452   40.7967  -24.5952 C   0  0  0  0  0  0  0  0  0  0  0  0
  -16.7591   44.9951  -20.0355 N   0  0  0  0  0  0  0  0  0  0  0  0
  -17.0092   46.3937  -20.3767 C   0  0  0  0  0  0  0  0  0  0  0  0
  -15.9282   44.5095  -19.1020 C   0  0  0  0  0  0  0  0  0  0  0  0
  -15.2028   45.1899  -18.3403 O   0  0  0  0  0  0  0  0  0  0  0  0
  -16.0135   43.1720  -19.1313 N   0  0  0  0  0  0  0  0  0  0  0  0
  -15.2574   42.2762  -18.2605 C   0  0  0  0  0  0  0  0  0  0  0  0
  1  2  1  0
  2  3  1  0
  3  4  2  0
  4  5  1  0
  5  6  2  0
  6  7  1  0
  7  8  2  0
  8  9  1  0
  9 10  2  0
  9 11  1  0
 11 12  1  0
 12 13  2  0
 13 14  1  0
 14 15  2  0
 15 16  1  0
 16 17  2  0
 17 18  1  0
 18 19  1  0
 19 20  1  0
 20 21  1  0
 21 22  1  0
 22 23  1  0
 23 24  1  6
 15 25  1  0
 25 26  1  0
 25 27  1  0
 27 28  2  0
 27 29  1  0
 29 30  1  0
  8  3  1  0
 17 12  1  0
 23 18  1  0
 29 14  1  0
M  END
$$$$
