
     RDKit          3D

 28 31  0  0  0  0  0  0  0  0999 V2000
  -19.5657   41.1329  -24.5955 C   0  0  0  0  0  0  0  0  0  0  0  0
  -19.5506   40.4668  -23.2569 C   0  0  0  0  0  0  0  0  0  0  0  0
  -19.4727   39.2134  -23.1390 O   0  0  0  0  0  0  0  0  0  0  0  0
  -19.6208   41.1805  -22.0753 O   0  0  0  0  0  0  0  0  0  0  0  0
  -19.4734   40.5814  -20.7911 C   0  0  2  0  0  0  0  0  0  0  0  0
  -19.2309   39.1446  -20.8676 C   0  0  0  0  0  0  0  0  0  0  0  0
  -18.9173   38.4148  -22.1207 C   0  0  0  0  0  0  0  0  0  0  0  0
  -19.2882   38.4948  -19.8343 O   0  0  0  0  0  0  0  0  0  0  0  0
  -20.6217   40.9762  -19.8756 C   0  0  0  0  0  0  0  0  0  0  0  0
  -20.2992   42.4074  -19.4154 C   0  0  0  0  0  0  0  0  0  0  0  0
  -19.0511   42.7433  -20.1544 C   0  0  1  0  0  0  0  0  0  0  0  0
  -18.2235   43.8369  -19.6108 C   0  0  2  0  0  0  0  0  0  0  0  0
  -18.8319   45.1329  -20.0842 C   0  0  0  0  0  0  0  0  0  0  0  0
  -18.0782   46.2189  -20.1404 C   0  0  0  0  0  0  0  0  0  0  0  0
  -18.7267   47.7716  -20.6859 Cl  0  0  0  0  0  0  0  0  0  0  0  0
  -16.6574   46.1590  -19.7433 C   0  0  0  0  0  0  0  0  0  0  0  0
  -15.9603   47.2735  -19.6070 C   0  0  0  0  0  0  0  0  0  0  0  0
  -14.5689   47.1651  -19.2156 C   0  0  0  0  0  0  0  0  0  0  0  0
  -14.0024   48.1694  -18.7319 O   0  0  0  0  0  0  0  0  0  0  0  0
  -13.7831   45.9232  -19.3598 C   0  0  0  0  0  0  0  0  0  0  0  0
  -14.5832   44.7983  -19.9576 C   0  0  0  0  0  0  0  0  0  0  0  0
  -16.0148   44.8351  -19.4973 C   0  0  1  0  0  0  0  0  0  0  0  0
  -16.0030   44.5760  -17.9934 C   0  0  0  0  0  0  0  0  0  0  0  0
  -16.8347   43.8017  -20.2024 C   0  0  1  0  0  0  0  0  0  0  0  0
  -16.2017   42.4590  -20.2132 C   0  0  0  0  0  0  0  0  0  0  0  0
  -17.1324   41.4970  -20.9669 C   0  0  0  0  0  0  0  0  0  0  0  0
  -18.3502   41.3729  -20.1295 C   0  0  2  0  0  0  0  0  0  0  0  0
  -18.0627   40.9832  -18.7296 C   0  0  0  0  0  0  0  0  0  0  0  0
  1  2  1  0
  2  3  2  0
  2  4  1  0
  5  4  1  6
  5  6  1  0
  6  7  1  0
  6  8  2  0
  5  9  1  0
  9 10  1  0
 11 10  1  1
 11 12  1  0
 12 13  1  6
 13 14  2  0
 14 15  1  0
 14 16  1  0
 16 17  2  0
 17 18  1  0
 18 19  2  0
 18 20  1  0
 20 21  1  0
 21 22  1  0
 22 23  1  1
 22 24  1  0
 24 25  1  1
 25 26  1  0
 26 27  1  0
 27 28  1  1
 27  5  1  0
 27 11  1  0
 24 12  1  0
 22 16  1  0
M  END
$$$$
