
     RDKit          3D

 30 35  0  0  0  0  0  0  0  0999 V2000
  -21.0050   40.5982  -17.4492 O   0  0  0  0  0  0  0  0  0  0  0  0
  -20.3387   41.2284  -18.3057 C   0  0  0  0  0  0  0  0  0  0  0  0
  -19.6844   40.5918  -19.3565 C   0  0  0  0  0  0  0  0  0  0  0  0
  -18.9517   41.2822  -20.2985 C   0  0  0  0  0  0  0  0  0  0  0  0
  -18.2934   40.6100  -21.3606 N   0  0  0  0  0  0  0  0  0  0  0  0
  -17.2741   41.1618  -22.2080 C   0  0  0  0  0  0  0  0  0  0  0  0
  -17.6625   40.9391  -23.6698 C   0  0  0  0  0  0  0  0  0  0  0  0
  -18.0990   39.6641  -23.9217 O   0  0  0  0  0  0  0  0  0  0  0  0
  -17.9031   38.7889  -22.8565 C   0  0  0  0  0  0  0  0  0  0  0  0
  -18.6725   39.2197  -21.6340 C   0  0  0  0  0  0  0  0  0  0  0  0
  -18.8710   42.6104  -20.1930 O   0  0  0  0  0  0  0  0  0  0  0  0
  -19.4745   43.2326  -19.2179 C   0  0  0  0  0  0  0  0  0  0  0  0
  -19.3180   44.6250  -19.2109 C   0  0  0  0  0  0  0  0  0  0  0  0
  -18.5365   45.2858  -20.2316 C   0  0  0  0  0  0  0  0  0  0  0  0
  -19.0995   46.1475  -21.1448 C   0  0  0  0  0  0  0  0  0  0  0  0
  -18.2369   46.7174  -22.0739 C   0  0  0  0  0  0  0  0  0  0  0  0
  -16.8939   46.4520  -22.1006 C   0  0  0  0  0  0  0  0  0  0  0  0
  -16.3094   45.5639  -21.1606 C   0  0  0  0  0  0  0  0  0  0  0  0
  -17.1921   45.0428  -20.2863 C   0  0  0  0  0  0  0  0  0  0  0  0
  -16.2323   44.0092  -19.2662 S   0  0  0  0  0  0  0  0  0  0  0  0
  -14.6213   44.3428  -20.1013 C   0  0  0  0  0  0  0  0  0  0  0  0
  -13.3769   43.8607  -19.8361 C   0  0  0  0  0  0  0  0  0  0  0  0
  -12.3357   44.2844  -20.6330 C   0  0  0  0  0  0  0  0  0  0  0  0
  -12.6528   45.1691  -21.6391 C   0  0  0  0  0  0  0  0  0  0  0  0
  -13.9109   45.6454  -21.8938 C   0  0  0  0  0  0  0  0  0  0  0  0
  -15.0051   45.2116  -21.0704 C   0  0  0  0  0  0  0  0  0  0  0  0
  -19.9486   45.3026  -18.1875 C   0  0  0  0  0  0  0  0  0  0  0  0
  -20.6908   44.6800  -17.2204 C   0  0  0  0  0  0  0  0  0  0  0  0
  -20.8371   43.3224  -17.2362 C   0  0  0  0  0  0  0  0  0  0  0  0
  -20.2204   42.5972  -18.2476 C   0  0  0  0  0  0  0  0  0  0  0  0
  1  2  2  0
  2  3  1  0
  3  4  2  0
  4  5  1  0
  5  6  1  0
  6  7  1  0
  7  8  1  0
  8  9  1  0
  9 10  1  0
  4 11  1  0
 11 12  1  0
 12 13  2  0
 13 14  1  0
 14 15  2  0
 15 16  1  0
 16 17  2  0
 17 18  1  0
 18 19  2  0
 19 20  1  0
 20 21  1  0
 21 22  2  0
 22 23  1  0
 23 24  2  0
 24 25  1  0
 25 26  2  0
 13 27  1  0
 27 28  2  0
 28 29  1  0
 29 30  2  0
 30  2  1  0
 10  5  1  0
 30 12  1  0
 19 14  1  0
 26 21  1  0
 26 18  1  0
M  END
$$$$
