
     RDKit          3D

 30 34  0  0  0  0  0  0  0  0999 V2000
  -11.8686   14.7386  -26.9664 C   0  0  0  0  0  0  0  0  0  0  0  0
  -13.2302   14.2728  -27.3829 C   0  0  0  0  0  0  0  0  0  0  0  0
  -14.3743   14.8391  -26.8630 C   0  0  0  0  0  0  0  0  0  0  0  0
  -15.6357   14.4080  -27.2485 C   0  0  0  0  0  0  0  0  0  0  0  0
  -15.8053   13.3932  -28.1695 C   0  0  0  0  0  0  0  0  0  0  0  0
  -17.1519   12.9245  -28.5888 C   0  0  0  0  0  0  0  0  0  0  0  0
  -17.8161   13.9021  -29.4532 N   0  0  0  0  0  0  0  0  0  0  0  0
  -18.6912   14.8142  -29.0761 N   0  0  0  0  0  0  0  0  0  0  0  0
  -19.1016   15.5477  -30.1310 C   0  0  0  0  0  0  0  0  0  0  0  0
  -18.4441   15.0706  -31.2525 C   0  0  0  0  0  0  0  0  0  0  0  0
  -18.4460   15.4011  -32.5896 C   0  0  0  0  0  0  0  0  0  0  0  0
  -19.2511   16.4611  -33.0780 N   0  0  0  0  0  0  0  0  0  0  0  0
  -20.3060   17.1019  -32.3093 C   0  0  0  0  0  0  0  0  0  0  0  0
  -20.5839   18.4904  -32.8574 C   0  0  0  0  0  0  0  0  0  0  0  0
  -20.8978   18.4173  -34.2537 N   0  0  0  0  0  0  0  0  0  0  0  0
  -21.7327   19.3588  -34.8832 C   0  0  0  0  0  0  0  0  0  0  0  0
  -21.1935   20.3747  -35.6374 C   0  0  0  0  0  0  0  0  0  0  0  0
  -21.9730   21.3252  -36.2616 C   0  0  0  0  0  0  0  0  0  0  0  0
  -23.3409   21.2389  -36.1135 C   0  0  0  0  0  0  0  0  0  0  0  0
  -23.9003   20.2292  -35.3626 C   0  0  0  0  0  0  0  0  0  0  0  0
  -23.0911   19.2854  -34.7453 C   0  0  0  0  0  0  0  0  0  0  0  0
  -23.7669   18.2165  -33.9601 C   0  0  0  0  0  0  0  0  0  0  0  0
  -20.3372   17.3356  -35.0319 C   0  0  0  0  0  0  0  0  0  0  0  0
  -19.0130   16.9466  -34.4249 C   0  0  0  0  0  0  0  0  0  0  0  0
  -17.6434   14.6763  -33.4031 N   0  0  0  0  0  0  0  0  0  0  0  0
  -16.8758   13.6787  -32.9394 C   0  0  0  0  0  0  0  0  0  0  0  0
  -16.8648   13.3468  -31.6377 N   0  0  0  0  0  0  0  0  0  0  0  0
  -17.6494   14.0429  -30.7928 C   0  0  0  0  0  0  0  0  0  0  0  0
  -14.6500   12.8323  -28.6844 C   0  0  0  0  0  0  0  0  0  0  0  0
  -13.3947   13.2593  -28.3027 C   0  0  0  0  0  0  0  0  0  0  0  0
  1  2  1  0
  2  3  2  0
  3  4  1  0
  4  5  2  0
  5  6  1  0
  6  7  1  0
  7  8  1  0
  8  9  2  0
  9 10  1  0
 10 11  2  0
 11 12  1  0
 12 13  1  0
 13 14  1  0
 14 15  1  0
 15 16  1  0
 16 17  2  0
 17 18  1  0
 18 19  2  0
 19 20  1  0
 20 21  2  0
 21 22  1  0
 15 23  1  0
 23 24  1  0
 11 25  1  0
 25 26  2  0
 26 27  1  0
 27 28  2  0
  5 29  1  0
 29 30  2  0
 30  2  1  0
 28  7  1  0
 28 10  1  0
 24 12  1  0
 21 16  1  0
M  END
$$$$
