
     RDKit          3D

 32 35  0  0  0  0  0  0  0  0999 V2000
  -14.5575   48.8261  -18.9761 C   0  0  0  0  0  0  0  0  0  0  0  0
  -15.0530   48.1156  -20.0743 O   0  0  0  0  0  0  0  0  0  0  0  0
  -15.6604   46.8572  -19.9196 C   0  0  0  0  0  0  0  0  0  0  0  0
  -15.4663   46.1566  -18.7661 C   0  0  0  0  0  0  0  0  0  0  0  0
  -16.0643   44.9169  -18.6130 C   0  0  0  0  0  0  0  0  0  0  0  0
  -16.8535   44.3510  -19.5783 C   0  0  0  0  0  0  0  0  0  0  0  0
  -17.4684   43.0230  -19.3628 C   0  0  0  0  0  0  0  0  0  0  0  0
  -17.9126   42.6568  -18.0593 C   0  0  0  0  0  0  0  0  0  0  0  0
  -18.5423   41.0304  -18.3547 S   0  0  0  0  0  0  0  0  0  0  0  0
  -18.1276   41.0472  -20.2009 C   0  0  0  0  0  0  0  0  0  0  0  0
  -18.4581   39.8781  -20.9664 N   0  0  0  0  0  0  0  0  0  0  0  0
  -19.8110   39.4068  -21.0683 C   0  0  0  0  0  0  0  0  0  0  0  0
  -20.7063   40.0934  -20.5121 O   0  0  0  0  0  0  0  0  0  0  0  0
  -20.1441   38.1584  -21.8006 C   0  0  1  0  0  0  0  0  0  0  0  0
  -21.2632   38.4192  -22.8008 C   0  0  0  0  0  0  0  0  0  0  0  0
  -20.8396   39.3794  -23.8735 C   0  0  0  0  0  0  0  0  0  0  0  0
  -19.4824   39.0136  -24.3840 C   0  0  0  0  0  0  0  0  0  0  0  0
  -19.0915   37.6152  -23.8891 C   0  0  0  0  0  0  0  0  0  0  0  0
  -18.9662   37.6987  -22.4679 N   0  0  0  0  0  0  0  0  0  0  0  0
  -18.2371   36.3418  -21.7443 S   0  0  0  0  0  6  0  0  0  0  0  0
  -16.9339   36.0219  -22.4209 O   0  0  0  0  0  0  0  0  0  0  0  0
  -17.9086   36.7009  -20.3122 O   0  0  0  0  0  0  0  0  0  0  0  0
  -19.3023   34.9569  -21.6875 C   0  0  0  0  0  0  0  0  0  0  0  0
  -20.2271   34.8193  -20.6735 C   0  0  0  0  0  0  0  0  0  0  0  0
  -21.0768   33.7322  -20.6122 C   0  0  0  0  0  0  0  0  0  0  0  0
  -21.0412   32.7322  -21.5620 C   0  0  0  0  0  0  0  0  0  0  0  0
  -21.9627   31.5649  -21.4849 C   0  0  0  0  0  0  0  0  0  0  0  0
  -20.1159   32.8714  -22.5752 C   0  0  0  0  0  0  0  0  0  0  0  0
  -19.2611   33.9585  -22.6429 C   0  0  0  0  0  0  0  0  0  0  0  0
  -17.6525   42.1250  -20.2672 N   0  0  0  0  0  0  0  0  0  0  0  0
  -17.0442   45.0604  -20.7346 C   0  0  0  0  0  0  0  0  0  0  0  0
  -16.4472   46.3188  -20.9102 C   0  0  0  0  0  0  0  0  0  0  0  0
  1  2  1  0
  2  3  1  0
  3  4  2  0
  4  5  1  0
  5  6  2  0
  6  7  1  0
  7  8  2  0
  8  9  1  0
  9 10  1  0
 10 11  1  0
 11 12  1  0
 12 13  2  0
 14 12  1  6
 14 15  1  0
 15 16  1  0
 16 17  1  0
 17 18  1  0
 18 19  1  0
 19 20  1  0
 20 21  2  0
 20 22  2  0
 20 23  1  0
 23 24  2  0
 24 25  1  0
 25 26  2  0
 26 27  1  0
 26 28  1  0
 28 29  2  0
 10 30  2  0
  6 31  1  0
 31 32  2  0
 32  3  1  0
 30  7  1  0
 19 14  1  0
 29 23  1  0
M  END
$$$$
