
     RDKit          3D

 38 40  0  0  0  0  0  0  0  0999 V2000
  -20.0166   12.0503  -32.3190 C   0  0  0  0  0  0  0  0  0  0  0  0
  -19.7481   13.1742  -33.3213 C   0  0  0  0  0  0  0  0  0  0  0  0
  -18.4428   13.6496  -33.1055 O   0  0  0  0  0  0  0  0  0  0  0  0
  -17.8328   14.6686  -33.8253 C   0  0  0  0  0  0  0  0  0  0  0  0
  -18.5726   15.1695  -34.7430 O   0  0  0  0  0  0  0  0  0  0  0  0
  -16.4962   15.1639  -33.6115 C   0  0  0  0  0  0  0  0  0  0  0  0
  -16.2491   16.1376  -32.5049 C   0  0  0  0  0  0  0  0  0  0  0  0
  -16.6640   15.5519  -31.2460 N   0  0  0  0  0  0  0  0  0  0  0  0
  -17.9210   15.7566  -30.7168 C   0  0  0  0  0  0  0  0  0  0  0  0
  -18.3421   14.8061  -29.9251 O   0  0  0  0  0  0  0  0  0  0  0  0
  -18.8550   16.8424  -30.8715 C   0  0  0  0  0  0  0  0  0  0  0  0
  -19.2028   17.4297  -32.0220 C   0  0  0  0  0  0  0  0  0  0  0  0
  -20.1475   18.4761  -32.0905 C   0  0  0  0  0  0  0  0  0  0  0  0
  -20.7451   18.9238  -30.9460 C   0  0  0  0  0  0  0  0  0  0  0  0
  -20.4061   18.3381  -29.7476 C   0  0  0  0  0  0  0  0  0  0  0  0
  -19.4837   17.3197  -29.6916 C   0  0  0  0  0  0  0  0  0  0  0  0
  -21.1707   18.9933  -28.8352 N   0  0  0  0  0  0  0  0  0  0  0  0
  -21.9312   19.9218  -29.4412 C   0  0  0  0  0  0  0  0  0  0  0  0
  -22.9284   20.8561  -28.8802 C   0  0  0  0  0  0  0  0  0  0  0  0
  -22.3970   22.1114  -28.4489 N   0  0  0  0  0  0  0  0  0  0  0  0
  -23.3222   23.0882  -27.9685 C   0  0  0  0  0  0  0  0  0  0  0  0
  -24.6771   22.8503  -27.9416 C   0  0  0  0  0  0  0  0  0  0  0  0
  -25.6084   23.7663  -27.4801 C   0  0  0  0  0  0  0  0  0  0  0  0
  -25.1367   24.9763  -27.0261 C   0  0  0  0  0  0  0  0  0  0  0  0
  -26.0887   25.9497  -26.5400 C   0  0  0  0  0  0  0  0  0  0  0  0
  -27.2667   25.6528  -26.0893 N   0  0  0  0  0  0  0  0  0  0  0  0
  -25.7248   27.3101  -26.5457 N   0  0  0  0  0  0  0  0  0  0  0  0
  -23.7958   25.2719  -27.0272 C   0  0  0  0  0  0  0  0  0  0  0  0
  -22.9027   24.3255  -27.4984 C   0  0  0  0  0  0  0  0  0  0  0  0
  -21.6736   19.8913  -30.7752 N   0  0  0  0  0  0  0  0  0  0  0  0
  -22.2841   20.7402  -31.8034 C   0  0  0  0  0  0  0  0  0  0  0  0
  -15.6992   14.6546  -30.6574 C   0  0  0  0  0  0  0  0  0  0  0  0
  -15.8453   14.0967  -29.4214 C   0  0  0  0  0  0  0  0  0  0  0  0
  -14.8692   13.2044  -28.9517 C   0  0  0  0  0  0  0  0  0  0  0  0
  -13.7757   12.8940  -29.7248 C   0  0  0  0  0  0  0  0  0  0  0  0
  -13.6487   13.4709  -30.9695 C   0  0  0  0  0  0  0  0  0  0  0  0
  -14.5906   14.3034  -31.3710 N   0  0  0  0  0  0  0  0  0  0  0  0
  -19.9036   17.8440  -30.3897 Cl  0  0  0  0  0  0  0  0  0  0  0  0
  1  2  1  0
  2  3  1  0
  3  4  1  0
  4  5  2  0
  4  6  1  0
  6  7  1  0
  7  8  1  0
  8  9  1  0
  9 10  2  0
  9 11  1  0
 11 12  2  0
 12 13  1  0
 13 14  2  0
 14 15  1  0
 15 16  2  0
 15 17  1  0
 17 18  2  0
 18 19  1  0
 19 20  1  0
 20 21  1  0
 21 22  2  0
 22 23  1  0
 23 24  2  0
 24 25  1  0
 25 26  2  0
 25 27  1  0
 24 28  1  0
 28 29  2  0
 18 30  1  0
 30 31  1  0
  8 32  1  0
 32 33  2  0
 33 34  1  0
 34 35  2  0
 35 36  1  0
 36 37  2  0
 16 11  1  0
 29 21  1  0
 37 32  1  0
 30 14  1  0
M  END
$$$$
