
     RDKit          3D

 22 24  0  0  0  0  0  0  0  0999 V2000
  -23.2254   19.2902  -36.2342 C   0  0  0  0  0  0  0  0  0  0  0  0
  -23.6159   19.2638  -37.6651 C   0  0  0  0  0  0  0  0  0  0  0  0
  -23.7934   18.0475  -38.2951 C   0  0  0  0  0  0  0  0  0  0  0  0
  -24.1558   17.9999  -39.6227 C   0  0  0  0  0  0  0  0  0  0  0  0
  -24.3341   19.1870  -40.2967 C   0  0  0  0  0  0  0  0  0  0  0  0
  -24.1549   20.4045  -39.6605 C   0  0  0  0  0  0  0  0  0  0  0  0
  -23.7919   20.4559  -38.3307 C   0  0  0  0  0  0  0  0  0  0  0  0
  -23.5892   21.6628  -37.6083 N   0  0  0  0  0  0  0  0  0  0  0  0
  -22.5920   22.6152  -37.9392 C   0  0  0  0  0  0  0  0  0  0  0  0
  -21.9685   22.4141  -39.0267 O   0  0  0  0  0  0  0  0  0  0  0  0
  -22.2804   23.7855  -37.0775 C   0  0  0  0  0  0  0  0  0  0  0  0
  -23.2590   23.8001  -35.9249 C   0  0  0  0  0  0  0  0  0  0  0  0
  -24.3697   24.6779  -36.2050 N   0  0  0  0  0  0  0  0  0  0  0  0
  -25.4538   24.3617  -36.9080 C   0  0  0  0  0  0  0  0  0  0  0  0
  -25.6954   23.2423  -37.4488 O   0  0  0  0  0  0  0  0  0  0  0  0
  -26.2464   25.4131  -36.9522 O   0  0  0  0  0  0  0  0  0  0  0  0
  -25.6908   26.4075  -36.2872 C   0  0  0  0  0  0  0  0  0  0  0  0
  -26.0541   27.7079  -36.0077 C   0  0  0  0  0  0  0  0  0  0  0  0
  -25.2540   28.5633  -35.2611 C   0  0  0  0  0  0  0  0  0  0  0  0
  -24.0466   28.0938  -34.7790 C   0  0  0  0  0  0  0  0  0  0  0  0
  -23.6521   26.7948  -35.0411 C   0  0  0  0  0  0  0  0  0  0  0  0
  -24.4634   25.9623  -35.7854 C   0  0  0  0  0  0  0  0  0  0  0  0
  1  2  1  0
  2  3  2  0
  3  4  1  0
  4  5  2  0
  5  6  1  0
  6  7  2  0
  7  8  1  0
  8  9  1  0
  9 10  2  0
  9 11  1  0
 11 12  1  0
 12 13  1  0
 13 14  1  0
 14 15  2  0
 14 16  1  0
 16 17  1  0
 17 18  2  0
 18 19  1  0
 19 20  2  0
 20 21  1  0
 21 22  2  0
  7  2  1  0
 22 13  1  0
 22 17  1  0
M  END
$$$$
