
     RDKit          3D

 27 29  0  0  0  0  0  0  0  0999 V2000
    2.3251   16.4233  -18.5664 C   0  0  0  0  0  0  0  0  0  0  0  0
    1.0969   16.7417  -19.2418 N   0  0  0  0  0  0  0  0  0  0  0  0
   -0.0804   16.3655  -18.6778 N   0  0  0  0  0  0  0  0  0  0  0  0
   -1.1050   16.8197  -19.3651 C   0  0  0  0  0  0  0  0  0  0  0  0
   -0.5823   17.5240  -20.4298 C   0  0  0  0  0  0  0  0  0  0  0  0
   -1.5185   18.2946  -21.6949 Cl  0  0  0  0  0  0  0  0  0  0  0  0
    0.8164   17.4441  -20.3086 C   0  0  0  0  0  0  0  0  0  0  0  0
    1.7700   18.2389  -21.1629 C   0  0  0  0  0  0  0  0  0  0  0  0
    2.3512   19.3522  -20.6922 C   0  0  0  0  0  0  0  0  0  0  0  0
    3.0561   20.1864  -21.4491 C   0  0  0  0  0  0  0  0  0  0  0  0
    3.7679   21.4270  -21.1801 C   0  0  0  0  0  0  0  0  0  0  0  0
    4.7572   21.7847  -21.8755 O   0  0  0  0  0  0  0  0  0  0  0  0
    3.3786   22.2898  -20.1211 N   0  0  0  0  0  0  0  0  0  0  0  0
    4.1600   23.4789  -19.8611 C   0  0  2  0  0  0  0  0  0  0  0  0
    5.4459   23.0070  -19.2123 C   0  0  0  0  0  0  0  0  0  0  0  0
    6.0995   22.0138  -19.9855 N   0  0  0  0  0  0  0  0  0  0  0  0
    3.4961   24.4440  -18.9142 C   0  0  0  0  0  0  0  0  0  0  0  0
    2.3587   25.0675  -19.6365 C   0  0  0  0  0  0  0  0  0  0  0  0
    1.0759   24.5332  -19.4491 C   0  0  0  0  0  0  0  0  0  0  0  0
   -0.0173   25.0655  -20.0850 C   0  0  0  0  0  0  0  0  0  0  0  0
    0.1351   26.1417  -20.9231 C   0  0  0  0  0  0  0  0  0  0  0  0
    1.3927   26.7136  -21.1455 C   0  0  0  0  0  0  0  0  0  0  0  0
    1.5175   27.7746  -21.9765 F   0  0  0  0  0  0  0  0  0  0  0  0
    2.4511   26.1393  -20.4822 C   0  0  0  0  0  0  0  0  0  0  0  0
    2.9302   19.3549  -23.0601 S   0  0  0  0  0  0  0  0  0  0  0  0
    1.9108   17.9416  -22.5115 C   0  0  0  0  0  0  0  0  0  0  0  0
    1.4140   16.8653  -23.6855 Cl  0  0  0  0  0  0  0  0  0  0  0  0
  1  2  1  0
  2  3  1  0
  3  4  2  0
  4  5  1  0
  5  6  1  0
  5  7  2  0
  7  8  1  0
  8  9  1  0
  9 10  2  0
 10 11  1  0
 11 12  2  0
 11 13  1  0
 13 14  1  0
 14 15  1  1
 15 16  1  0
 14 17  1  0
 17 18  1  0
 18 19  2  0
 19 20  1  0
 20 21  2  0
 21 22  1  0
 22 23  1  0
 22 24  2  0
 10 25  1  0
 25 26  1  0
 26 27  1  0
  7  2  1  0
 26  8  2  0
 24 18  1  0
M  END
$$$$
