
     RDKit          3D

 35 38  0  0  0  0  0  0  0  0999 V2000
  -29.6670   43.0830  -16.2733 C   0  0  0  0  0  0  0  0  0  0  0  0
  -29.3113   43.3948  -17.7040 C   0  0  0  0  0  0  0  0  0  0  0  0
  -27.8975   43.3724  -17.9707 N   0  0  0  0  0  0  0  0  0  0  0  0
  -27.3205   43.6642  -19.2489 C   0  0  0  0  0  0  0  0  0  0  0  0
  -28.0769   43.9699  -20.1862 O   0  0  0  0  0  0  0  0  0  0  0  0
  -25.8704   43.5829  -19.3849 C   0  0  0  0  0  0  0  0  0  0  0  0
  -24.6772   43.5016  -19.5115 C   0  0  0  0  0  0  0  0  0  0  0  0
  -23.2427   43.3863  -19.6627 C   0  0  0  0  0  0  0  0  0  0  0  0
  -22.5070   44.1480  -20.4914 C   0  0  0  0  0  0  0  0  0  0  0  0
  -21.1278   43.9289  -20.6462 C   0  0  0  0  0  0  0  0  0  0  0  0
  -20.4898   42.9284  -19.9579 C   0  0  0  0  0  0  0  0  0  0  0  0
  -21.2276   42.1213  -19.0830 C   0  0  0  0  0  0  0  0  0  0  0  0
  -22.5728   42.3779  -18.9677 C   0  0  0  0  0  0  0  0  0  0  0  0
  -20.3883   41.1423  -18.4716 N   0  0  0  0  0  0  0  0  0  0  0  0
  -19.0860   41.3528  -18.9995 C   0  0  0  0  0  0  0  0  0  0  0  0
  -18.0904   40.6681  -18.6814 O   0  0  0  0  0  0  0  0  0  0  0  0
  -19.0814   42.4568  -19.9425 C   0  0  0  0  0  0  0  0  0  0  0  0
  -18.0748   42.8605  -20.6981 C   0  0  0  0  0  0  0  0  0  0  0  0
  -17.1180   43.7659  -20.2090 N   0  0  0  0  0  0  0  0  0  0  0  0
  -15.8774   43.6246  -19.6151 C   0  0  0  0  0  0  0  0  0  0  0  0
  -15.6336   44.3955  -18.4756 C   0  0  0  0  0  0  0  0  0  0  0  0
  -14.4582   44.3215  -17.7895 C   0  0  0  0  0  0  0  0  0  0  0  0
  -13.4732   43.4629  -18.2217 C   0  0  0  0  0  0  0  0  0  0  0  0
  -12.2212   43.4471  -17.4389 C   0  0  0  0  0  0  0  0  0  0  0  0
  -12.3862   43.1892  -16.0478 N   0  0  0  0  0  0  0  0  0  0  0  0
  -11.9720   44.2494  -15.1924 C   0  0  0  0  0  0  0  0  0  0  0  0
  -11.9932   41.9238  -15.5592 C   0  0  0  0  0  0  0  0  0  0  0  0
  -13.7038   42.7004  -19.3397 C   0  0  0  0  0  0  0  0  0  0  0  0
  -14.9112   42.7715  -20.0565 C   0  0  0  0  0  0  0  0  0  0  0  0
  -17.8406   42.2289  -21.9693 C   0  0  0  0  0  0  0  0  0  0  0  0
  -17.4102   40.9530  -22.2059 C   0  0  0  0  0  0  0  0  0  0  0  0
  -17.3058   40.4246  -23.5011 C   0  0  0  0  0  0  0  0  0  0  0  0
  -17.6335   41.1820  -24.5771 C   0  0  0  0  0  0  0  0  0  0  0  0
  -18.0785   42.4948  -24.3842 C   0  0  0  0  0  0  0  0  0  0  0  0
  -18.1762   42.9949  -23.1095 C   0  0  0  0  0  0  0  0  0  0  0  0
  1  2  1  0
  2  3  1  0
  3  4  1  0
  4  5  2  0
  4  6  1  0
  6  7  3  0
  7  8  1  0
  8  9  2  0
  9 10  1  0
 10 11  2  0
 11 12  1  0
 12 13  2  0
 12 14  1  0
 14 15  1  0
 15 16  2  0
 15 17  1  0
 17 18  2  0
 18 19  1  0
 19 20  1  0
 20 21  2  0
 21 22  1  0
 22 23  2  0
 23 24  1  0
 24 25  1  0
 25 26  1  0
 25 27  1  0
 23 28  1  0
 28 29  2  0
 18 30  1  0
 30 31  2  0
 31 32  1  0
 32 33  2  0
 33 34  1  0
 34 35  2  0
 13  8  1  0
 29 20  1  0
 35 30  1  0
 17 11  1  0
M  END
$$$$
