
     RDKit          3D

 22 22  0  0  0  0  0  0  0  0999 V2000
  -22.5741   40.3494  -21.1783 O   0  0  0  0  0  0  0  0  0  0  0  0
  -21.0985   40.1469  -20.8336 S   0  0  0  0  0  6  0  0  0  0  0  0
  -21.0045   39.5487  -19.4422 O   0  0  0  0  0  0  0  0  0  0  0  0
  -20.3409   39.0950  -21.8930 N   0  0  0  0  0  0  0  0  0  0  0  0
  -19.0640   38.5901  -21.6197 C   0  0  2  0  0  0  0  0  0  0  0  0
  -17.9666   39.5289  -22.1792 C   0  0  0  0  0  0  0  0  0  0  0  0
  -18.3743   40.0689  -23.3781 O   0  0  0  0  0  0  0  0  0  0  0  0
  -18.7146   37.2396  -22.1264 C   0  0  0  0  0  0  0  0  0  0  0  0
  -17.3411   36.7353  -21.7677 C   0  0  0  0  0  0  0  0  0  0  0  0
  -17.1181   35.5647  -22.4556 F   0  0  0  0  0  0  0  0  0  0  0  0
  -17.1343   36.6303  -20.4056 F   0  0  0  0  0  0  0  0  0  0  0  0
  -16.3756   37.6568  -22.2315 F   0  0  0  0  0  0  0  0  0  0  0  0
  -19.7205   36.1577  -21.8192 C   0  0  0  0  0  0  0  0  0  0  0  0
  -19.4146   35.0301  -22.5098 F   0  0  0  0  0  0  0  0  0  0  0  0
  -19.9110   35.9605  -20.4559 F   0  0  0  0  0  0  0  0  0  0  0  0
  -20.9714   36.6272  -22.2608 F   0  0  0  0  0  0  0  0  0  0  0  0
  -20.3156   41.7214  -20.7317 C   0  0  0  0  0  0  0  0  0  0  0  0
  -19.4683   42.1712  -19.7310 C   0  0  0  0  0  0  0  0  0  0  0  0
  -18.9627   43.4070  -19.8223 C   0  0  0  0  0  0  0  0  0  0  0  0
  -19.2609   44.2143  -20.8615 C   0  0  0  0  0  0  0  0  0  0  0  0
  -18.8515   45.8121  -21.3603 Cl  0  0  0  0  0  0  0  0  0  0  0  0
  -20.3927   43.0739  -21.8142 S   0  0  0  0  0  0  0  0  0  0  0  0
  1  2  2  0
  2  3  2  0
  2  4  1  0
  4  5  1  0
  5  6  1  6
  6  7  1  0
  5  8  1  0
  8  9  1  0
  9 10  1  0
  9 11  1  0
  9 12  1  0
  8 13  1  0
 13 14  1  0
 13 15  1  0
 13 16  1  0
  2 17  1  0
 17 18  2  0
 18 19  1  0
 19 20  2  0
 20 21  1  0
 20 22  1  0
 22 17  1  0
M  END
$$$$
