
     RDKit          3D

 24 27  0  0  0  0  0  0  0  0999 V2000
  -22.1787   39.3512  -27.7559 C   0  0  0  0  0  0  0  0  0  0  0  0
  -22.2172   40.5601  -27.0248 O   0  0  0  0  0  0  0  0  0  0  0  0
  -21.3259   40.7320  -25.9802 C   0  0  0  0  0  0  0  0  0  0  0  0
  -20.1280   41.3798  -26.1835 C   0  0  0  0  0  0  0  0  0  0  0  0
  -19.2261   41.5606  -25.1533 C   0  0  0  0  0  0  0  0  0  0  0  0
  -19.5081   41.0917  -23.8858 C   0  0  0  0  0  0  0  0  0  0  0  0
  -18.5646   41.2096  -22.7955 C   0  0  0  0  0  0  0  0  0  0  0  0
  -17.8814   40.1179  -22.2412 C   0  0  0  0  0  0  0  0  0  0  0  0
  -17.0738   40.5384  -21.2784 N   0  0  0  0  0  0  0  0  0  0  0  0
  -17.2046   41.8835  -21.1792 C   0  0  0  0  0  0  0  0  0  0  0  0
  -16.6455   42.7883  -20.3687 N   0  0  0  0  0  0  0  0  0  0  0  0
  -16.9484   44.0802  -20.4345 C   0  0  0  0  0  0  0  0  0  0  0  0
  -17.8587   44.5470  -21.3488 C   0  0  0  0  0  0  0  0  0  0  0  0
  -18.4656   43.6577  -22.2110 C   0  0  0  0  0  0  0  0  0  0  0  0
  -19.4313   44.1669  -23.2204 C   0  0  0  0  0  0  0  0  0  0  0  0
  -19.1239   44.9766  -24.2434 C   0  0  0  0  0  0  0  0  0  0  0  0
  -20.0492   45.3409  -25.1368 C   0  0  0  0  0  0  0  0  0  0  0  0
  -21.5447   44.4806  -24.5261 S   0  0  0  0  0  0  0  0  0  0  0  0
  -20.7308   43.7444  -23.1509 C   0  0  0  0  0  0  0  0  0  0  0  0
  -18.1411   42.3338  -22.1275 C   0  0  0  0  0  0  0  0  0  0  0  0
  -20.6980   40.4416  -23.6582 C   0  0  0  0  0  0  0  0  0  0  0  0
  -21.0453   39.9422  -22.3978 O   0  0  0  0  0  0  0  0  0  0  0  0
  -22.0435   40.4878  -21.5992 C   0  0  0  0  0  0  0  0  0  0  0  0
  -21.5869   40.2700  -24.6989 C   0  0  0  0  0  0  0  0  0  0  0  0
  1  2  1  0
  2  3  1  0
  3  4  2  0
  4  5  1  0
  5  6  2  0
  6  7  1  0
  7  8  2  0
  8  9  1  0
  9 10  1  0
 10 11  2  0
 11 12  1  0
 12 13  2  0
 13 14  1  0
 14 15  1  0
 15 16  1  0
 16 17  2  0
 17 18  1  0
 18 19  1  0
 14 20  2  0
  6 21  1  0
 21 22  1  0
 22 23  1  0
 21 24  2  0
 24  3  1  0
 20  7  1  0
 20 10  1  0
 19 15  2  0
M  END
$$$$
