
     RDKit          3D

 24 25  0  0  0  0  0  0  0  0999 V2000
  -18.0580   45.9557  -21.2708 C   0  0  0  0  0  0  0  0  0  0  0  0
  -17.5774   45.0739  -20.2222 N   0  0  0  0  0  4  0  0  0  0  0  0
  -17.5004   45.8437  -19.0101 C   0  0  0  0  0  0  0  0  0  0  0  0
  -16.3086   44.4942  -20.5182 C   0  0  0  0  0  0  0  0  0  0  0  0
  -16.5308   43.0315  -20.8471 C   0  0  0  0  0  0  0  0  0  0  0  0
  -17.9975   43.0133  -21.1430 C   0  0  0  0  0  0  0  0  0  0  0  0
  -18.5769   41.7432  -21.1065 O   0  0  0  0  0  0  0  0  0  0  0  0
  -19.2322   41.1270  -22.1377 C   0  0  0  0  0  0  0  0  0  0  0  0
  -19.3335   41.7396  -23.2227 O   0  0  0  0  0  0  0  0  0  0  0  0
  -19.8150   39.7771  -22.0077 C   0  0  0  0  0  0  0  0  0  0  0  0
  -20.3990   39.4394  -23.2287 O   0  0  0  0  0  0  0  0  0  0  0  0
  -18.7732   38.7441  -21.7574 C   0  0  0  0  0  0  0  0  0  0  0  0
  -18.9156   37.7661  -20.7990 C   0  0  0  0  0  0  0  0  0  0  0  0
  -17.9257   36.8014  -20.5765 C   0  0  0  0  0  0  0  0  0  0  0  0
  -16.7676   36.8117  -21.3263 C   0  0  0  0  0  0  0  0  0  0  0  0
  -16.6089   37.7795  -22.2861 C   0  0  0  0  0  0  0  0  0  0  0  0
  -17.5930   38.7163  -22.4876 C   0  0  0  0  0  0  0  0  0  0  0  0
  -20.9194   39.7212  -20.9837 C   0  0  0  0  0  0  0  0  0  0  0  0
  -22.0505   40.6644  -21.3515 C   0  0  0  0  0  0  0  0  0  0  0  0
  -22.6139   41.0567  -19.9814 C   0  0  0  0  0  0  0  0  0  0  0  0
  -21.3047   41.3522  -19.2394 C   0  0  0  0  0  0  0  0  0  0  0  0
  -20.5138   40.0859  -19.5983 C   0  0  0  0  0  0  0  0  0  0  0  0
  -18.5317   43.9606  -20.1051 C   0  0  0  0  0  0  0  0  0  0  0  0
  -18.9209   41.6008  -20.8679 Br  0  0  0  0  0 15  0  0  0  0  0  0
  1  2  1  0
  2  3  1  0
  2  4  1  0
  4  5  1  0
  5  6  1  0
  6  7  1  0
  7  8  1  0
  8  9  2  0
  8 10  1  0
 10 11  1  0
 10 12  1  0
 12 13  2  0
 13 14  1  0
 14 15  2  0
 15 16  1  0
 16 17  2  0
 10 18  1  0
 18 19  1  0
 19 20  1  0
 20 21  1  0
 21 22  1  0
  6 23  1  0
 23  2  1  0
 17 12  1  0
 22 18  1  0
M  CHG  2   2   1  24  -1
M  END
$$$$
