
     RDKit          3D

 32 34  0  0  0  0  0  0  0  0999 V2000
  -31.6403   13.7236  -16.0213 C   0  0  0  0  0  0  0  0  0  0  0  0
  -32.2218   13.0728  -17.2710 C   0  0  0  0  0  0  0  0  0  0  0  0
  -32.5033   11.6502  -16.9598 C   0  0  0  0  0  0  0  0  0  0  0  0
  -32.8133   10.7811  -18.1287 C   0  0  0  0  0  0  0  0  0  0  0  0
  -32.5030   11.3171  -19.4714 C   0  0  0  0  0  0  0  0  0  0  0  0
  -33.7389   11.5567  -20.3145 C   0  0  0  0  0  0  0  0  0  0  0  0
  -34.4929   10.2648  -20.5240 C   0  0  0  0  0  0  0  0  0  0  0  0
  -34.7073   12.5285  -19.6889 C   0  0  0  0  0  0  0  0  0  0  0  0
  -31.4824   12.4077  -19.5791 C   0  0  0  0  0  0  0  0  0  0  0  0
  -30.3225   11.9841  -20.2724 O   0  0  0  0  0  0  0  0  0  0  0  0
  -29.9324   12.4432  -21.5155 C   0  0  0  0  0  0  0  0  0  0  0  0
  -30.6771   13.3022  -22.0351 O   0  0  0  0  0  0  0  0  0  0  0  0
  -28.6966   11.9389  -22.1911 C   0  0  0  0  0  0  0  0  0  0  0  0
  -27.4876   12.4984  -21.6036 N   0  0  0  0  0  0  0  0  0  0  0  0
  -26.7994   13.6038  -21.8972 C   0  0  0  0  0  0  0  0  0  0  0  0
  -27.1248   14.5389  -22.9582 C   0  0  0  0  0  0  0  0  0  0  0  0
  -26.5169   14.3960  -24.1873 C   0  0  0  0  0  0  0  0  0  0  0  0
  -26.8017   15.2689  -25.2022 C   0  0  0  0  0  0  0  0  0  0  0  0
  -27.6942   16.2959  -25.0120 C   0  0  0  0  0  0  0  0  0  0  0  0
  -28.1166   17.5357  -26.4162 Br  0  0  0  0  0  0  0  0  0  0  0  0
  -28.3276   16.4703  -23.7843 C   0  0  0  0  0  0  0  0  0  0  0  0
  -28.0139   15.5663  -22.7814 C   0  0  0  0  0  0  0  0  0  0  0  0
  -25.7377   13.7366  -21.0859 N   0  0  0  0  0  4  0  0  0  0  0  0
  -24.7506   14.8289  -21.1009 C   0  0  0  0  0  0  0  0  0  0  0  0
  -25.7572   12.6836  -20.2593 C   0  0  0  0  0  0  0  0  0  0  0  0
  -24.9006   12.3116  -19.2319 C   0  0  0  0  0  0  0  0  0  0  0  0
  -25.1680   11.1582  -18.5479 C   0  0  0  0  0  0  0  0  0  0  0  0
  -26.2707   10.3647  -18.8639 C   0  0  0  0  0  0  0  0  0  0  0  0
  -27.1290   10.7259  -19.8836 C   0  0  0  0  0  0  0  0  0  0  0  0
  -26.8436   11.8918  -20.5624 C   0  0  0  0  0  0  0  0  0  0  0  0
  -31.1661   13.1471  -18.3438 C   0  0  0  0  0  0  0  0  0  0  0  0
  -29.6917   12.8036  -20.2732 Cl  0  0  0  0  0 15  0  0  0  0  0  0
  1  2  1  0
  2  3  1  0
  3  4  1  0
  4  5  1  0
  5  6  1  0
  6  7  1  0
  6  8  1  0
  5  9  1  0
  9 10  1  0
 10 11  1  0
 11 12  2  0
 11 13  1  0
 13 14  1  0
 14 15  1  0
 15 16  1  0
 16 17  2  0
 17 18  1  0
 18 19  2  0
 19 20  1  0
 19 21  1  0
 21 22  2  0
 15 23  2  0
 23 24  1  0
 23 25  1  0
 25 26  2  0
 26 27  1  0
 27 28  2  0
 28 29  1  0
 29 30  2  0
  9 31  1  0
 31  2  1  0
 30 14  1  0
 22 16  1  0
 30 25  1  0
M  CHG  2  23   1  32  -1
M  END
$$$$
