
     RDKit          3D

 15 16  0  0  0  0  0  0  0  0999 V2000
  -18.5425   39.7791  -23.5720 N   0  0  0  0  0  0  0  0  0  0  0  0
  -18.5657   39.1141  -22.2835 C   0  0  1  0  0  0  0  0  0  0  0  0
  -17.4443   38.1559  -22.2386 C   0  0  0  0  0  0  0  0  0  0  0  0
  -16.5213   38.2191  -23.0764 O   0  0  0  0  0  0  0  0  0  0  0  0
  -17.4063   37.1796  -21.2680 O   0  0  0  0  0  0  0  0  0  0  0  0
  -18.3536   40.1287  -21.2102 C   0  0  0  0  0  0  0  0  0  0  0  0
  -19.1966   39.4344  -19.7894 S   0  0  0  0  0  6  0  0  0  0  0  0
  -19.9877   40.5032  -19.1368 O   0  0  0  0  0  0  0  0  0  0  0  0
  -18.2727   38.7158  -18.8846 O   0  0  0  0  0  0  0  0  0  0  0  0
  -20.2332   38.2875  -20.6839 C   0  0  1  0  0  0  0  0  0  0  0  0
  -21.1104   38.9720  -21.7054 C   0  0  2  0  0  0  0  0  0  0  0  0
  -22.3573   38.2143  -22.0112 C   0  0  0  0  0  0  0  0  0  0  0  0
  -22.3988   36.9667  -21.8357 O   0  0  0  0  0  0  0  0  0  0  0  0
  -23.5093   38.8188  -22.4920 O   0  0  0  0  0  0  0  0  0  0  0  0
  -19.8307   38.3863  -22.0754 C   0  0  1  0  0  0  0  0  0  0  0  0
  2  1  1  6
  2  3  1  0
  3  4  2  0
  3  5  1  0
  2  6  1  0
  6  7  1  0
  7  8  2  0
  7  9  2  0
 10  7  1  1
 10 11  1  0
 11 12  1  6
 12 13  2  0
 12 14  1  0
 11 15  1  0
 15  2  1  1
 15 10  1  0
M  END
$$$$
