
     RDKit          3D

 20 21  0  0  0  0  0  0  0  0999 V2000
   -1.7174   37.6656  -13.8337 C   0  0  0  0  0  0  0  0  0  0  0  0
   -2.5167   38.2033  -12.7923 O   0  0  0  0  0  0  0  0  0  0  0  0
   -3.6037   38.9878  -13.1304 C   0  0  0  0  0  0  0  0  0  0  0  0
   -3.4868   40.0173  -14.0635 C   0  0  0  0  0  0  0  0  0  0  0  0
   -4.6222   40.7674  -14.3544 C   0  0  0  0  0  0  0  0  0  0  0  0
   -5.8318   40.5223  -13.7556 C   0  0  0  0  0  0  0  0  0  0  0  0
   -6.9542   41.3692  -14.0157 C   0  0  0  0  0  0  0  0  0  0  0  0
   -8.1825   41.0916  -13.7515 C   0  0  0  0  0  0  0  0  0  0  0  0
   -8.4373   39.8351  -12.9776 C   0  0  0  0  0  0  0  0  0  0  0  0
   -8.6152   38.8786  -12.3762 N   0  0  0  0  0  0  0  0  0  0  0  0
   -9.3009   41.9511  -14.0091 C   0  0  0  0  0  0  0  0  0  0  0  0
   -9.3114   43.3019  -14.0448 C   0  0  0  0  0  0  0  0  0  0  0  0
  -10.4733   44.0285  -14.3802 C   0  0  0  0  0  0  0  0  0  0  0  0
  -11.6408   43.3639  -14.6812 C   0  0  0  0  0  0  0  0  0  0  0  0
  -11.6225   42.0253  -14.6416 N   0  0  0  0  0  0  0  0  0  0  0  0
  -10.5154   41.3254  -14.3229 C   0  0  0  0  0  0  0  0  0  0  0  0
   -5.9229   39.4795  -12.8197 C   0  0  0  0  0  0  0  0  0  0  0  0
   -4.8051   38.7232  -12.5176 C   0  0  0  0  0  0  0  0  0  0  0  0
   -4.8899   37.7140  -11.6124 O   0  0  0  0  0  0  0  0  0  0  0  0
   -5.7845   36.6558  -11.5481 C   0  0  0  0  0  0  0  0  0  0  0  0
  1  2  1  0
  2  3  1  0
  3  4  2  0
  4  5  1  0
  5  6  2  0
  6  7  1  0
  7  8  2  0
  8  9  1  0
  9 10  3  0
  8 11  1  0
 11 12  2  0
 12 13  1  0
 13 14  2  0
 14 15  1  0
 15 16  2  0
  6 17  1  0
 17 18  2  0
 18 19  1  0
 19 20  1  0
 18  3  1  0
 16 11  1  0
M  END
$$$$
