
     RDKit          3D

 16 17  0  0  0  0  0  0  0  0999 V2000
  -23.6242   24.3245  -36.1448 C   0  0  0  0  0  0  0  0  0  0  0  0
  -24.3356   24.5031  -37.4486 C   0  0  0  0  0  0  0  0  0  0  0  0
  -25.7986   24.2629  -37.2785 C   0  0  0  0  0  0  0  0  0  0  0  0
  -26.8542   24.6534  -38.0006 C   0  0  0  0  0  0  0  0  0  0  0  0
  -28.1015   24.2862  -37.6061 C   0  0  0  0  0  0  0  0  0  0  0  0
  -29.3390   24.5954  -38.2286 C   0  0  0  0  0  0  0  0  0  0  0  0
  -30.5169   24.1436  -37.6982 C   0  0  0  0  0  0  0  0  0  0  0  0
  -30.5949   23.3843  -36.5650 C   0  0  0  0  0  0  0  0  0  0  0  0
  -29.4058   23.0712  -35.9428 C   0  0  0  0  0  0  0  0  0  0  0  0
  -28.2108   23.5338  -36.4875 C   0  0  0  0  0  0  0  0  0  0  0  0
  -26.5347   23.3233  -35.9579 S   0  0  0  0  0  0  0  0  0  0  0  0
  -23.8495   23.5324  -38.3941 N   0  0  0  0  0  0  0  0  0  0  0  0
  -24.2140   22.2471  -38.2622 O   0  0  0  0  0  0  0  0  0  0  0  0
  -22.9830   23.9351  -39.4566 C   0  0  0  0  0  0  0  0  0  0  0  0
  -22.5632   22.9858  -40.4174 N   0  0  0  0  0  0  0  0  0  0  0  0
  -22.5925   25.1211  -39.5440 O   0  0  0  0  0  0  0  0  0  0  0  0
  1  2  1  0
  2  3  1  0
  3  4  2  0
  4  5  1  0
  5  6  2  0
  6  7  1  0
  7  8  2  0
  8  9  1  0
  9 10  2  0
 10 11  1  0
  2 12  1  0
 12 13  1  0
 12 14  1  0
 14 15  1  0
 14 16  2  0
 11  3  1  0
 10  5  1  0
M  END
$$$$
