
     RDKit          3D

 31 34  0  0  0  0  0  0  0  0999 V2000
   -7.4877   35.2870   -9.5374 C   0  0  0  0  0  0  0  0  0  0  0  0
   -6.0799   35.2998   -9.4382 O   0  0  0  0  0  0  0  0  0  0  0  0
   -5.2491   35.6290  -10.5067 C   0  0  0  0  0  0  0  0  0  0  0  0
   -5.3324   36.8408  -11.1605 C   0  0  0  0  0  0  0  0  0  0  0  0
   -4.5005   37.1690  -12.2296 C   0  0  0  0  0  0  0  0  0  0  0  0
   -4.6048   38.4593  -12.9021 C   0  0  0  0  0  0  0  0  0  0  0  0
   -5.8072   39.1587  -12.9491 C   0  0  0  0  0  0  0  0  0  0  0  0
   -5.9279   40.3900  -13.5795 C   0  0  0  0  0  0  0  0  0  0  0  0
   -7.1862   41.0911  -13.6124 C   0  0  0  0  0  0  0  0  0  0  0  0
   -7.2426   42.4603  -13.6127 C   0  0  0  0  0  0  0  0  0  0  0  0
   -8.4169   43.1759  -13.6436 C   0  0  0  0  0  0  0  0  0  0  0  0
   -9.6106   42.5206  -13.6763 C   0  0  0  0  0  0  0  0  0  0  0  0
  -10.8564   43.1990  -13.7125 N   0  0  0  0  0  0  0  0  0  0  0  0
  -11.0054   44.4927  -13.0773 C   0  0  0  0  0  0  0  0  0  0  0  0
  -12.2543   45.1766  -13.6443 C   0  0  0  0  0  0  0  0  0  0  0  0
  -13.4342   44.4088  -13.4015 N   0  0  0  0  0  0  0  0  0  0  0  0
  -13.2180   42.9968  -13.4939 C   0  0  0  0  0  0  0  0  0  0  0  0
  -12.0163   42.6460  -14.3673 C   0  0  0  0  0  0  0  0  0  0  0  0
   -9.5946   41.1390  -13.6771 C   0  0  0  0  0  0  0  0  0  0  0  0
   -8.3952   40.4267  -13.6455 C   0  0  0  0  0  0  0  0  0  0  0  0
   -4.8214   40.9498  -14.1848 C   0  0  0  0  0  0  0  0  0  0  0  0
   -3.6653   40.2693  -14.1354 N   0  0  0  0  0  0  0  0  0  0  0  0
   -3.5318   39.0612  -13.5212 C   0  0  0  0  0  0  0  0  0  0  0  0
   -2.2040   38.4045  -13.5385 C   0  0  0  0  0  0  0  0  0  0  0  0
   -3.5800   36.2174  -12.6085 C   0  0  0  0  0  0  0  0  0  0  0  0
   -3.4970   34.9936  -11.9471 C   0  0  0  0  0  0  0  0  0  0  0  0
   -2.5703   34.0679  -12.3485 O   0  0  0  0  0  0  0  0  0  0  0  0
   -1.1817   34.3519  -12.3367 C   0  0  0  0  0  0  0  0  0  0  0  0
   -4.3252   34.6796  -10.8908 C   0  0  0  0  0  0  0  0  0  0  0  0
   -4.2483   33.4596  -10.2254 O   0  0  0  0  0  0  0  0  0  0  0  0
   -3.3239   33.3536   -9.1386 C   0  0  0  0  0  0  0  0  0  0  0  0
  1  2  1  0
  2  3  1  0
  3  4  2  0
  4  5  1  0
  5  6  1  0
  6  7  2  0
  7  8  1  0
  8  9  1  0
  9 10  2  0
 10 11  1  0
 11 12  2  0
 12 13  1  0
 13 14  1  0
 14 15  1  0
 15 16  1  0
 16 17  1  0
 17 18  1  0
 12 19  1  0
 19 20  2  0
  8 21  2  0
 21 22  1  0
 22 23  2  0
 23 24  1  0
  5 25  2  0
 25 26  1  0
 26 27  1  0
 27 28  1  0
 26 29  2  0
 29 30  1  0
 30 31  1  0
 29  3  1  0
 23  6  1  0
 20  9  1  0
 18 13  1  0
M  END
$$$$
