
     RDKit          3D

 20 21  0  0  0  0  0  0  0  0999 V2000
  -18.6658   38.1483  -20.9482 O   0  0  0  0  0  0  0  0  0  0  0  0
  -19.7454   38.3647  -20.3782 C   0  0  0  0  0  0  0  0  0  0  0  0
  -20.6019   37.2638  -20.2777 O   0  0  0  0  0  0  0  0  0  0  0  0
  -20.1485   39.6538  -19.8336 C   0  0  0  0  0  0  0  0  0  0  0  0
  -21.3612   39.7035  -19.1628 C   0  0  0  0  0  0  0  0  0  0  0  0
  -21.7553   40.9242  -18.6540 C   0  0  0  0  0  0  0  0  0  0  0  0
  -20.9961   42.0733  -18.7905 C   0  0  0  0  0  0  0  0  0  0  0  0
  -19.8259   41.9610  -19.4539 N   0  0  0  0  0  0  0  0  0  0  0  0
  -19.3731   40.7919  -19.9794 C   0  0  0  0  0  0  0  0  0  0  0  0
  -18.1321   40.7129  -20.6244 N   0  0  0  0  0  0  0  0  0  0  0  0
  -17.1713   41.7439  -20.7456 C   0  0  0  0  0  0  0  0  0  0  0  0
  -16.4167   41.9134  -21.8766 C   0  0  0  0  0  0  0  0  0  0  0  0
  -15.4683   42.9353  -21.9552 C   0  0  0  0  0  0  0  0  0  0  0  0
  -15.2770   43.8016  -20.8819 C   0  0  0  0  0  0  0  0  0  0  0  0
  -16.0350   43.6438  -19.7260 C   0  0  0  0  0  0  0  0  0  0  0  0
  -15.8539   44.5333  -18.5571 C   0  0  0  0  0  0  0  0  0  0  0  0
  -15.9702   45.8781  -18.9352 F   0  0  0  0  0  0  0  0  0  0  0  0
  -14.5769   44.3396  -18.0613 F   0  0  0  0  0  0  0  0  0  0  0  0
  -16.7859   44.2007  -17.5886 F   0  0  0  0  0  0  0  0  0  0  0  0
  -16.9708   42.6029  -19.6997 C   0  0  0  0  0  0  0  0  0  0  0  0
  1  2  2  0
  2  3  1  0
  2  4  1  0
  4  5  2  0
  5  6  1  0
  6  7  2  0
  7  8  1  0
  8  9  2  0
  9 10  1  0
 10 11  1  0
 11 12  2  0
 12 13  1  0
 13 14  2  0
 14 15  1  0
 15 16  1  0
 16 17  1  0
 16 18  1  0
 16 19  1  0
 15 20  2  0
  9  4  1  0
 20 11  1  0
M  END
$$$$
