
     RDKit          3D

 15 16  0  0  0  0  0  0  0  0999 V2000
  -17.3726   39.9188  -19.5685 F   0  0  0  0  0  0  0  0  0  0  0  0
  -18.0685   41.0633  -19.1662 C   0  0  0  0  0  0  0  0  0  0  0  0
  -17.2866   41.8616  -18.3501 F   0  0  0  0  0  0  0  0  0  0  0  0
  -19.1202   40.6102  -18.3954 F   0  0  0  0  0  0  0  0  0  0  0  0
  -18.6189   41.7980  -20.3099 C   0  0  0  0  0  0  0  0  0  0  0  0
  -18.4455   43.1787  -20.4291 C   0  0  0  0  0  0  0  0  0  0  0  0
  -18.9584   43.8820  -21.5007 C   0  0  0  0  0  0  0  0  0  0  0  0
  -19.6506   43.1724  -22.4533 C   0  0  0  0  0  0  0  0  0  0  0  0
  -19.8417   41.7922  -22.3641 C   0  0  0  0  0  0  0  0  0  0  0  0
  -19.3177   41.1143  -21.2813 C   0  0  0  0  0  0  0  0  0  0  0  0
  -19.4700   39.7104  -21.1199 N   0  0  0  0  0  0  0  0  0  0  0  0
  -18.9188   38.7161  -21.8648 C   0  0  0  0  0  0  0  0  0  0  0  0
  -19.3259   37.4952  -21.3664 C   0  0  0  0  0  0  0  0  0  0  0  0
  -20.1213   37.7862  -20.3218 N   0  0  0  0  0  0  0  0  0  0  0  0
  -20.2127   39.1348  -20.1670 C   0  0  0  0  0  0  0  0  0  0  0  0
  1  2  1  0
  2  3  1  0
  2  4  1  0
  2  5  1  0
  5  6  2  0
  6  7  1  0
  7  8  2  0
  8  9  1  0
  9 10  2  0
 10 11  1  0
 11 12  1  0
 12 13  2  0
 13 14  1  0
 14 15  2  0
 10  5  1  0
 15 11  1  0
M  END
$$$$
