
     RDKit          3D

 33 35  0  0  0  0  0  0  0  0999 V2000
  -15.3123   17.0745  -42.3792 C   0  0  0  0  0  0  0  0  0  0  0  0
  -14.4000   18.0640  -42.0302 O   0  0  0  0  0  0  0  0  0  0  0  0
  -13.1428   17.9061  -41.5104 C   0  0  0  0  0  0  0  0  0  0  0  0
  -12.0355   17.9316  -42.3685 C   0  0  0  0  0  0  0  0  0  0  0  0
  -10.7434   17.7799  -41.9226 C   0  0  0  0  0  0  0  0  0  0  0  0
  -10.5868   17.5982  -40.5656 C   0  0  0  0  0  0  0  0  0  0  0  0
   -8.9728   17.3936  -39.8886 Cl  0  0  0  0  0  0  0  0  0  0  0  0
  -11.6405   17.5684  -39.7051 C   0  0  0  0  0  0  0  0  0  0  0  0
  -12.9554   17.7238  -40.1661 C   0  0  0  0  0  0  0  0  0  0  0  0
  -14.0166   17.6828  -39.1651 C   0  0  0  0  0  0  0  0  0  0  0  0
  -13.7208   17.8394  -37.9284 O   0  0  0  0  0  0  0  0  0  0  0  0
  -15.3870   17.4825  -39.4151 N   0  0  0  0  0  0  0  0  0  0  0  0
  -16.3278   17.1267  -38.3464 C   0  0  0  0  0  0  0  0  0  0  0  0
  -17.7144   16.8727  -38.8505 C   0  0  0  0  0  0  0  0  0  0  0  0
  -18.2996   18.1253  -39.4261 C   0  0  0  0  0  0  0  0  0  0  0  0
  -19.0593   18.9641  -38.6400 C   0  0  0  0  0  0  0  0  0  0  0  0
  -19.6232   20.1210  -39.1035 C   0  0  0  0  0  0  0  0  0  0  0  0
  -19.4407   20.5008  -40.4308 C   0  0  0  0  0  0  0  0  0  0  0  0
  -20.1627   21.9786  -41.0259 S   0  0  0  0  0  6  0  0  0  0  0  0
  -19.7428   23.1556  -40.1887 O   0  0  0  0  0  0  0  0  0  0  0  0
  -21.6430   21.8507  -40.9169 O   0  0  0  0  0  0  0  0  0  0  0  0
  -19.6983   22.1774  -42.6751 N   0  0  0  0  0  0  0  0  0  0  0  0
  -20.6363   21.8921  -43.7314 C   0  0  0  0  0  0  0  0  0  0  0  0
  -20.7106   22.6823  -44.6906 O   0  0  0  0  0  0  0  0  0  0  0  0
  -21.4546   20.7283  -43.6677 N   0  0  0  0  0  0  0  0  0  0  0  0
  -22.3144   20.3365  -44.7431 C   0  0  0  0  0  0  0  0  0  0  0  0
  -23.1548   19.1408  -44.3491 C   0  0  0  0  0  0  0  0  0  0  0  0
  -24.1830   18.8237  -45.4149 C   0  0  0  0  0  0  0  0  0  0  0  0
  -23.7208   19.2885  -46.7800 C   0  0  0  0  0  0  0  0  0  0  0  0
  -22.2206   19.1740  -46.9263 C   0  0  0  0  0  0  0  0  0  0  0  0
  -21.4387   19.9180  -45.9008 C   0  0  0  0  0  0  0  0  0  0  0  0
  -18.6829   19.6721  -41.2299 C   0  0  0  0  0  0  0  0  0  0  0  0
  -18.1134   18.4924  -40.7405 C   0  0  0  0  0  0  0  0  0  0  0  0
  1  2  1  0
  2  3  1  0
  3  4  2  0
  4  5  1  0
  5  6  2  0
  6  7  1  0
  6  8  1  0
  8  9  2  0
  9 10  1  0
 10 11  2  0
 10 12  1  0
 12 13  1  0
 13 14  1  0
 14 15  1  0
 15 16  2  0
 16 17  1  0
 17 18  2  0
 18 19  1  0
 19 20  2  0
 19 21  2  0
 19 22  1  0
 22 23  1  0
 23 24  2  0
 23 25  1  0
 25 26  1  0
 26 27  1  0
 27 28  1  0
 28 29  1  0
 29 30  1  0
 30 31  1  0
 18 32  1  0
 32 33  2  0
  9  3  1  0
 33 15  1  0
 31 26  1  0
M  END
$$$$
