
     RDKit          3D

 25 27  0  0  0  0  0  0  0  0999 V2000
  -17.6320   47.4080  -19.1752 C   0  0  0  0  0  0  0  0  0  0  0  0
  -16.7566   46.3463  -19.3881 O   0  0  0  0  0  0  0  0  0  0  0  0
  -17.1225   45.0849  -19.7992 C   0  0  0  0  0  0  0  0  0  0  0  0
  -18.4742   44.7443  -19.7417 C   0  0  0  0  0  0  0  0  0  0  0  0
  -18.8782   43.4812  -20.1480 C   0  0  0  0  0  0  0  0  0  0  0  0
  -17.9460   42.5737  -20.6042 C   0  0  0  0  0  0  0  0  0  0  0  0
  -18.4359   41.2371  -21.0254 C   0  0  2  0  0  0  0  0  0  0  0  0
  -17.4265   40.6622  -21.9145 C   0  0  0  0  0  0  0  0  0  0  0  0
  -16.6281   40.1902  -22.6418 N   0  0  0  0  0  0  0  0  0  0  0  0
  -19.7353   41.4023  -21.7479 C   0  0  0  0  0  0  0  0  0  0  0  0
  -20.5938   40.2181  -21.8498 C   0  0  0  0  0  0  0  0  0  0  0  0
  -20.4004   39.1507  -20.8210 C   0  0  1  0  0  0  0  0  0  0  0  0
  -20.9135   37.8403  -21.2946 C   0  0  0  0  0  0  0  0  0  0  0  0
  -21.6114   37.7369  -22.3203 O   0  0  0  0  0  0  0  0  0  0  0  0
  -20.6191   36.6809  -20.5887 O   0  0  0  0  0  0  0  0  0  0  0  0
  -18.9583   38.9604  -20.4194 C   0  0  0  0  0  0  0  0  0  0  0  0
  -18.5336   40.3143  -19.8314 C   0  0  0  0  0  0  0  0  0  0  0  0
  -16.6166   42.9467  -20.6470 C   0  0  0  0  0  0  0  0  0  0  0  0
  -16.1792   44.1894  -20.2527 C   0  0  0  0  0  0  0  0  0  0  0  0
  -14.8649   44.5837  -20.2857 O   0  0  0  0  0  0  0  0  0  0  0  0
  -14.0990   45.1037  -19.2506 C   0  0  0  0  0  0  0  0  0  0  0  0
  -12.7646   45.6317  -19.6783 C   0  0  0  0  0  0  0  0  0  0  0  0
  -11.7389   44.5354  -19.4575 C   0  0  0  0  0  0  0  0  0  0  0  0
  -12.5367   43.3057  -19.0751 C   0  0  0  0  0  0  0  0  0  0  0  0
  -13.7084   43.9302  -18.3470 C   0  0  0  0  0  0  0  0  0  0  0  0
  1  2  1  0
  2  3  1  0
  3  4  2  0
  4  5  1  0
  5  6  2  0
  6  7  1  0
  7  8  1  6
  8  9  3  0
  7 10  1  0
 10 11  1  0
 11 12  1  0
 12 13  1  6
 13 14  2  0
 13 15  1  0
 12 16  1  0
 16 17  1  0
  6 18  1  0
 18 19  2  0
 19 20  1  0
 20 21  1  0
 21 22  1  0
 22 23  1  0
 23 24  1  0
 24 25  1  0
 19  3  1  0
 25 21  1  0
 17  7  1  0
M  END
$$$$
