
     RDKit          3D

 13 14  0  0  0  0  0  0  0  0999 V2000
  -19.6468   15.3193  -30.1040 N   0  0  0  0  0  0  0  0  0  0  0  0
  -18.1957   15.5273  -30.0641 C   0  0  1  0  0  0  0  0  0  0  0  0
  -17.5641   14.2029  -29.7829 C   0  0  0  0  0  0  0  0  0  0  0  0
  -16.1947   14.0722  -30.3386 C   0  0  0  0  0  0  0  0  0  0  0  0
  -15.3960   13.0691  -29.8329 C   0  0  0  0  0  0  0  0  0  0  0  0
  -14.1030   12.8590  -30.2800 C   0  0  0  0  0  0  0  0  0  0  0  0
  -13.6120   13.6899  -31.2649 C   0  0  0  0  0  0  0  0  0  0  0  0
  -14.4119   14.6927  -31.7697 C   0  0  0  0  0  0  0  0  0  0  0  0
  -15.6963   14.8908  -31.3162 C   0  0  0  0  0  0  0  0  0  0  0  0
  -16.4914   15.9357  -31.8610 N   0  0  0  0  0  0  0  0  0  0  0  0
  -16.0390   16.7670  -32.8274 O   0  0  0  0  0  0  0  0  0  0  0  0
  -17.8063   16.1028  -31.3648 C   0  0  0  0  0  0  0  0  0  0  0  0
  -18.6560   16.7569  -32.0522 O   0  0  0  0  0  0  0  0  0  0  0  0
  2  1  1  6
  2  3  1  0
  3  4  1  0
  4  5  2  0
  5  6  1  0
  6  7  2  0
  7  8  1  0
  8  9  2  0
  9 10  1  0
 10 11  1  0
 10 12  1  0
 12 13  2  0
 12  2  1  0
  9  4  1  0
M  END
$$$$
