
     RDKit          3D

 34 34  0  0  0  0  0  0  0  0999 V2000
  -11.0596   18.0969  -40.5722 C   0  0  0  0  0  0  0  0  0  0  0  0
  -10.5715   18.7292  -41.7533 N   0  0  0  0  0  0  0  0  0  0  0  0
  -11.4393   19.5789  -42.4895 C   0  0  2  0  0  0  0  0  0  0  0  0
  -12.6417   18.8812  -43.0042 C   0  0  0  0  0  0  0  0  0  0  0  0
  -12.5359   18.0426  -43.9521 O   0  0  0  0  0  0  0  0  0  0  0  0
  -13.9573   19.0680  -42.5218 N   0  0  0  0  0  0  0  0  0  0  0  0
  -15.1134   19.0375  -43.4677 C   0  0  2  0  0  0  0  0  0  0  0  0
  -16.3534   19.3544  -42.7416 C   0  0  0  0  0  0  0  0  0  0  0  0
  -16.1968   19.4815  -41.4700 O   0  0  0  0  0  0  0  0  0  0  0  0
  -17.6439   19.5303  -43.2996 N   0  0  0  0  0  0  0  0  0  0  0  0
  -17.9779   18.7991  -44.5423 C   0  0  0  0  0  0  0  0  0  0  0  0
  -18.7020   20.3417  -42.7564 C   0  0  2  0  0  0  0  0  0  0  0  0
  -18.2843   21.5250  -42.0205 C   0  0  0  0  0  0  0  0  0  0  0  0
  -18.1902   22.6656  -42.6859 C   0  0  0  0  0  0  0  0  0  0  0  0
  -17.9812   22.7193  -44.1307 C   0  0  0  0  0  0  0  0  0  0  0  0
  -18.2994   23.9191  -41.9476 C   0  0  0  0  0  0  0  0  0  0  0  0
  -18.6441   23.9360  -40.7195 O   0  0  0  0  0  0  0  0  0  0  0  0
  -18.0362   25.1430  -42.5387 O   0  0  0  0  0  0  0  0  0  0  0  0
  -19.5803   19.5072  -41.8545 C   0  0  0  0  0  0  0  0  0  0  0  0
  -20.7268   20.1582  -41.1970 C   0  0  0  0  0  0  0  0  0  0  0  0
  -20.1428   18.3446  -42.6991 C   0  0  0  0  0  0  0  0  0  0  0  0
  -15.1507   17.5724  -43.9104 C   0  0  0  0  0  0  0  0  0  0  0  0
  -16.2050   17.2439  -44.9017 C   0  0  0  0  0  0  0  0  0  0  0  0
  -13.8104   17.2732  -44.6502 C   0  0  0  0  0  0  0  0  0  0  0  0
  -15.2210   16.6307  -42.7447 C   0  0  0  0  0  0  0  0  0  0  0  0
  -10.7802   20.5087  -43.4643 C   0  0  0  0  0  0  0  0  0  0  0  0
  -11.0870   21.9467  -43.0459 C   0  0  0  0  0  0  0  0  0  0  0  0
  -11.2130   20.3006  -44.9050 C   0  0  0  0  0  0  0  0  0  0  0  0
   -9.3000   20.3893  -43.4449 C   0  0  0  0  0  0  0  0  0  0  0  0
   -8.4687   21.4625  -43.6555 C   0  0  0  0  0  0  0  0  0  0  0  0
   -7.0757   21.3351  -43.6359 C   0  0  0  0  0  0  0  0  0  0  0  0
   -6.4970   20.1141  -43.4020 C   0  0  0  0  0  0  0  0  0  0  0  0
   -7.3212   19.0345  -43.1904 C   0  0  0  0  0  0  0  0  0  0  0  0
   -8.7151   19.1669  -43.2110 C   0  0  0  0  0  0  0  0  0  0  0  0
  1  2  1  0
  3  2  1  6
  3  4  1  0
  4  5  2  0
  4  6  1  0
  7  6  1  1
  7  8  1  0
  8  9  2  0
  8 10  1  0
 10 11  1  0
 10 12  1  0
 12 13  1  0
 13 14  2  0
 14 15  1  0
 14 16  1  0
 16 17  2  0
 16 18  1  0
 12 19  1  1
 19 20  1  0
 19 21  1  0
  7 22  1  0
 22 23  1  0
 22 24  1  0
 22 25  1  0
  3 26  1  0
 26 27  1  0
 26 28  1  0
 26 29  1  0
 29 30  2  0
 30 31  1  0
 31 32  2  0
 32 33  1  0
 33 34  2  0
 34 29  1  0
M  END
$$$$
