
     RDKit          3D

 29 32  0  0  0  0  0  0  0  0999 V2000
  -17.9582   39.3034  -22.6088 O   0  0  0  0  0  0  0  0  0  0  0  0
  -18.6955   38.7684  -21.7475 C   0  0  0  0  0  0  0  0  0  0  0  0
  -19.6358   39.6173  -21.0708 N   0  0  0  0  0  0  0  0  0  0  0  0
  -20.5349   40.5025  -21.7366 C   0  0  0  0  0  0  0  0  0  0  0  0
  -20.0865   41.9384  -21.4682 C   0  0  1  0  0  0  0  0  0  0  0  0
  -18.8433   41.8343  -20.6092 C   0  0  0  0  0  0  0  0  0  0  0  0
  -18.0029   42.9392  -21.0287 N   0  0  0  0  0  0  0  0  0  0  0  0
  -16.9225   43.4290  -20.2460 C   0  0  0  0  0  0  0  0  0  0  0  0
  -16.2780   44.6055  -20.5652 C   0  0  0  0  0  0  0  0  0  0  0  0
  -15.2294   45.0871  -19.8116 C   0  0  0  0  0  0  0  0  0  0  0  0
  -14.7762   44.4093  -18.6987 C   0  0  0  0  0  0  0  0  0  0  0  0
  -13.6813   44.9157  -17.9151 N   0  0  0  0  0  0  0  0  0  0  0  0
  -12.4177   45.2694  -18.5048 C   0  0  0  0  0  0  0  0  0  0  0  0
  -11.3813   45.3054  -17.4014 C   0  0  0  0  0  0  0  0  0  0  0  0
  -11.7961   46.2693  -16.4660 O   0  0  0  0  0  0  0  0  0  0  0  0
  -12.7722   45.6914  -15.6805 C   0  0  0  0  0  0  0  0  0  0  0  0
  -13.8366   45.0778  -16.5127 C   0  0  0  0  0  0  0  0  0  0  0  0
  -14.9016   44.6900  -15.9749 O   0  0  0  0  0  0  0  0  0  0  0  0
  -15.4222   43.2322  -18.3806 C   0  0  0  0  0  0  0  0  0  0  0  0
  -16.4739   42.7469  -19.1344 C   0  0  0  0  0  0  0  0  0  0  0  0
  -18.4882   43.3642  -22.2962 C   0  0  0  0  0  0  0  0  0  0  0  0
  -18.0073   44.3179  -22.9694 O   0  0  0  0  0  0  0  0  0  0  0  0
  -19.5739   42.5354  -22.6348 O   0  0  0  0  0  0  0  0  0  0  0  0
  -18.5840   37.3812  -21.4733 C   0  0  0  0  0  0  0  0  0  0  0  0
  -17.6364   36.4092  -21.6697 C   0  0  0  0  0  0  0  0  0  0  0  0
  -17.8142   35.1583  -21.2983 C   0  0  0  0  0  0  0  0  0  0  0  0
  -18.9910   34.7745  -20.6830 C   0  0  0  0  0  0  0  0  0  0  0  0
  -19.5981   33.2404  -20.0537 Cl  0  0  0  0  0  0  0  0  0  0  0  0
  -19.8987   36.3615  -20.6480 S   0  0  0  0  0  0  0  0  0  0  0  0
  1  2  2  0
  2  3  1  0
  3  4  1  0
  5  4  1  6
  5  6  1  0
  6  7  1  0
  7  8  1  0
  8  9  2  0
  9 10  1  0
 10 11  2  0
 11 12  1  0
 12 13  1  0
 13 14  1  0
 14 15  1  0
 15 16  1  0
 16 17  1  0
 17 18  2  0
 11 19  1  0
 19 20  2  0
  7 21  1  0
 21 22  2  0
 21 23  1  0
  2 24  1  0
 24 25  2  0
 25 26  1  0
 26 27  2  0
 27 28  1  0
 27 29  1  0
 23  5  1  0
 29 24  1  0
 20  8  1  0
 17 12  1  0
M  END
$$$$
