
     RDKit          3D

 28 29  0  0  0  0  0  0  0  0999 V2000
  -32.4463   13.3374  -24.7125 C   0  0  0  0  0  0  0  0  0  0  0  0
  -32.3509   12.4644  -23.4423 C   0  0  2  0  0  0  0  0  0  0  0  0
  -31.6220   13.2194  -22.3719 C   0  0  0  0  0  0  0  0  0  0  0  0
  -31.5034   12.5493  -21.0516 C   0  0  1  0  0  0  0  0  0  0  0  0
  -30.9321   13.5052  -20.0340 C   0  0  0  0  0  0  0  0  0  0  0  0
  -29.7010   14.2028  -20.5254 C   0  0  0  0  0  0  0  0  0  0  0  0
  -29.7211   15.4763  -21.0226 C   0  0  0  0  0  0  0  0  0  0  0  0
  -28.5503   16.1040  -21.4819 C   0  0  0  0  0  0  0  0  0  0  0  0
  -27.3719   15.4132  -21.4235 C   0  0  0  0  0  0  0  0  0  0  0  0
  -26.1328   16.0585  -21.8992 C   0  0  0  0  0  0  0  0  0  0  0  0
  -26.0092   17.4219  -21.8209 C   0  0  0  0  0  0  0  0  0  0  0  0
  -24.8595   18.0133  -22.2646 C   0  0  0  0  0  0  0  0  0  0  0  0
  -23.8199   17.2679  -22.7898 C   0  0  0  0  0  0  0  0  0  0  0  0
  -23.9666   15.8913  -22.8591 C   0  0  0  0  0  0  0  0  0  0  0  0
  -25.1102   15.3095  -22.4171 C   0  0  0  0  0  0  0  0  0  0  0  0
  -27.3645   14.1297  -20.9199 C   0  0  0  0  0  0  0  0  0  0  0  0
  -28.4920   13.5071  -20.4707 C   0  0  0  0  0  0  0  0  0  0  0  0
  -32.6758   11.9017  -20.5551 N   0  0  0  0  0  0  0  0  0  0  0  0
  -32.5993   10.6626  -19.8491 C   0  0  0  0  0  0  0  0  0  0  0  0
  -31.4495   10.1857  -19.6662 O   0  0  0  0  0  0  0  0  0  0  0  0
  -33.8158    9.9682  -19.3538 C   0  0  0  0  0  0  0  0  0  0  0  0
  -33.4162    8.5895  -18.8935 C   0  0  0  0  0  0  0  0  0  0  0  0
  -33.2938    7.6347  -20.0267 C   0  0  0  0  0  0  0  0  0  0  0  0
  -32.9221    6.4375  -19.8529 O   0  0  0  0  0  0  0  0  0  0  0  0
  -33.5804    8.0073  -21.3319 O   0  0  0  0  0  0  0  0  0  0  0  0
  -31.5508   11.2541  -23.8718 C   0  0  0  0  0  0  0  0  0  0  0  0
  -30.4324   11.3913  -24.4334 O   0  0  0  0  0  0  0  0  0  0  0  0
  -32.0342    9.9788  -23.6547 O   0  0  0  0  0  0  0  0  0  0  0  0
  2  1  1  6
  2  3  1  0
  4  3  1  6
  4  5  1  0
  5  6  1  0
  6  7  2  0
  7  8  1  0
  8  9  2  0
  9 10  1  0
 10 11  2  0
 11 12  1  0
 12 13  2  0
 13 14  1  0
 14 15  2  0
  9 16  1  0
 16 17  2  0
  4 18  1  0
 18 19  1  0
 19 20  2  0
 19 21  1  0
 21 22  1  0
 22 23  1  0
 23 24  2  0
 23 25  1  0
  2 26  1  0
 26 27  2  0
 26 28  1  0
 17  6  1  0
 15 10  1  0
M  END
$$$$
