
     RDKit          3D

 23 22  0  0  0  0  0  0  0  0999 V2000
  -11.4956   11.1942  -27.5776 C   0  0  0  0  0  0  0  0  0  0  0  0
  -12.8675   11.6346  -27.1429 C   0  0  0  0  0  0  0  0  0  0  0  0
  -13.6346   12.1901  -28.3128 C   0  0  0  0  0  0  0  0  0  0  0  0
  -15.0288   12.5739  -27.8282 C   0  0  0  0  0  0  0  0  0  0  0  0
  -15.8023   13.0899  -29.0261 C   0  0  0  0  0  0  0  0  0  0  0  0
  -17.1333   13.6632  -28.6259 C   0  0  0  0  0  0  0  0  0  0  0  0
  -17.9286   14.1370  -29.8067 C   0  0  0  0  0  0  0  0  0  0  0  0
  -18.3076   15.5986  -29.5147 C   0  0  0  0  0  0  0  0  0  0  0  0
  -17.6119   16.4136  -30.5182 C   0  0  0  0  0  0  0  0  0  0  0  0
  -17.5695   17.7114  -30.4071 C   0  0  0  0  0  0  0  0  0  0  0  0
  -16.6953   18.6485  -31.1275 C   0  0  0  0  0  0  0  0  0  0  0  0
  -16.3713   18.1172  -32.5105 C   0  0  0  0  0  0  0  0  0  0  0  0
  -15.7518   19.1773  -33.3855 C   0  0  0  0  0  0  0  0  0  0  0  0
  -15.5734   18.8019  -34.7944 C   0  0  0  0  0  0  0  0  0  0  0  0
  -16.6238   19.0239  -35.7884 C   0  0  0  0  0  0  0  0  0  0  0  0
  -16.6594   18.3378  -37.0784 C   0  0  0  0  0  0  0  0  0  0  0  0
  -17.0542   19.1076  -38.2997 C   0  0  0  0  0  0  0  0  0  0  0  0
  -16.4024   18.4186  -39.4841 C   0  0  0  0  0  0  0  0  0  0  0  0
  -15.1621   18.2867  -39.5743 O   0  0  0  0  0  0  0  0  0  0  0  0
  -17.2348   17.9121  -40.5148 N   0  0  0  0  0  0  0  0  0  0  0  0
  -18.4623   18.5719  -40.9142 C   0  0  0  0  0  0  0  0  0  0  0  0
  -18.1336   19.5545  -42.0233 C   0  0  0  0  0  0  0  0  0  0  0  0
  -18.0233   18.8566  -43.2023 O   0  0  0  0  0  0  0  0  0  0  0  0
  1  2  1  0
  2  3  1  0
  3  4  1  0
  4  5  1  0
  5  6  1  0
  6  7  1  0
  7  8  1  0
  8  9  1  0
  9 10  2  0
 10 11  1  0
 11 12  1  0
 12 13  1  0
 13 14  1  0
 14 15  1  0
 15 16  1  0
 16 17  1  0
 17 18  1  0
 18 19  2  0
 18 20  1  0
 20 21  1  0
 21 22  1  0
 22 23  1  0
M  END
$$$$
