
     RDKit          3D

 41 46  0  0  0  0  0  0  0  0999 V2000
  -19.5913   35.4367  -22.9544 C   0  0  0  0  0  0  0  0  0  0  0  0
  -20.7616   36.3315  -23.4254 C   0  0  0  0  0  0  0  0  0  0  0  0
  -21.4491   35.5292  -24.4872 C   0  0  0  0  0  0  0  0  0  0  0  0
  -20.1498   37.5564  -23.8618 N   0  0  0  0  0  0  0  0  0  0  0  0
  -20.9997   38.6668  -23.9234 C   0  0  0  0  0  0  0  0  0  0  0  0
  -21.7222   39.1378  -22.7318 C   0  0  1  0  0  0  0  0  0  0  0  0
  -21.1220   39.0604  -21.4982 O   0  0  0  0  0  0  0  0  0  0  0  0
  -22.1592   39.6168  -20.7079 C   0  0  1  0  0  0  0  0  0  0  0  0
  -21.8344   39.7100  -19.3271 N   0  0  0  0  0  0  0  0  0  0  0  0
  -20.6981   39.5079  -18.6506 C   0  0  0  0  0  0  0  0  0  0  0  0
  -20.8873   39.7249  -17.3325 N   0  0  0  0  0  0  0  0  0  0  0  0
  -22.1860   40.0812  -17.1351 C   0  0  0  0  0  0  0  0  0  0  0  0
  -22.9016   40.4110  -16.0082 C   0  0  0  0  0  0  0  0  0  0  0  0
  -22.2879   40.4185  -14.7418 N   0  0  0  0  0  0  0  0  0  0  0  0
  -24.1982   40.7282  -16.1330 N   0  0  0  0  0  0  0  0  0  0  0  0
  -24.7993   40.7235  -17.3622 C   0  0  0  0  0  0  0  0  0  0  0  0
  -24.0707   40.3956  -18.4421 N   0  0  0  0  0  0  0  0  0  0  0  0
  -22.7600   40.0656  -18.3925 C   0  0  0  0  0  0  0  0  0  0  0  0
  -22.3360   40.9625  -21.3819 C   0  0  2  0  0  0  0  0  0  0  0  0
  -23.6074   41.4864  -21.1619 O   0  0  0  0  0  0  0  0  0  0  0  0
  -22.1222   40.6094  -22.8365 C   0  0  2  0  0  0  0  0  0  0  0  0
  -23.3546   40.6585  -23.4753 O   0  0  0  0  0  0  0  0  0  0  0  0
  -18.8603   37.8315  -23.3448 C   0  0  1  0  0  0  0  0  0  0  0  0
  -18.0110   38.8583  -24.0161 C   0  0  0  0  0  0  0  0  0  0  0  0
  -17.7864   39.5348  -22.6911 C   0  0  1  0  0  0  0  0  0  0  0  0
  -18.1765   40.9996  -22.6414 C   0  0  0  0  0  0  0  0  0  0  0  0
  -17.1262   41.8275  -23.3467 C   0  0  0  0  0  0  0  0  0  0  0  0
  -16.2623   42.5466  -22.3477 C   0  0  0  0  0  0  0  0  0  0  0  0
  -15.0131   42.2130  -21.9790 N   0  0  0  0  0  0  0  0  0  0  0  0
  -14.5552   43.0764  -21.0600 C   0  0  0  0  0  0  0  0  0  0  0  0
  -13.3544   43.1900  -20.3566 C   0  0  0  0  0  0  0  0  0  0  0  0
  -13.1245   44.1910  -19.4415 C   0  0  0  0  0  0  0  0  0  0  0  0
  -11.8594   44.3327  -18.6898 C   0  0  0  0  0  0  0  0  0  0  0  0
  -11.3342   45.7462  -18.7254 C   0  0  0  0  0  0  0  0  0  0  0  0
  -12.0461   43.8618  -17.2761 C   0  0  0  0  0  0  0  0  0  0  0  0
  -10.8152   43.4545  -19.3477 C   0  0  0  0  0  0  0  0  0  0  0  0
  -14.1496   45.0873  -19.2504 C   0  0  0  0  0  0  0  0  0  0  0  0
  -15.3520   44.9986  -19.9350 C   0  0  0  0  0  0  0  0  0  0  0  0
  -15.5637   43.9784  -20.8559 C   0  0  0  0  0  0  0  0  0  0  0  0
  -16.6105   43.6438  -21.6533 N   0  0  0  0  0  0  0  0  0  0  0  0
  -18.7534   38.5849  -22.0411 C   0  0  0  0  0  0  0  0  0  0  0  0
  1  2  1  0
  2  3  1  0
  2  4  1  0
  4  5  1  0
  6  5  1  6
  6  7  1  0
  7  8  1  0
  8  9  1  1
  9 10  1  0
 10 11  2  0
 11 12  1  0
 12 13  2  0
 13 14  1  0
 13 15  1  0
 15 16  2  0
 16 17  1  0
 17 18  2  0
  8 19  1  0
 19 20  1  6
 19 21  1  0
 21 22  1  6
 23  4  1  6
 23 24  1  0
 24 25  1  0
 25 26  1  6
 26 27  1  0
 27 28  1  0
 28 29  2  0
 29 30  1  0
 30 31  2  0
 31 32  1  0
 32 33  1  0
 33 34  1  0
 33 35  1  0
 33 36  1  0
 32 37  2  0
 37 38  1  0
 38 39  2  0
 39 40  1  0
 25 41  1  0
 21  6  1  0
 41 23  1  0
 18  9  1  0
 40 28  1  0
 18 12  1  0
 39 30  1  0
M  END
$$$$
