
     RDKit          3D

 26 26  0  0  0  0  0  0  0  0999 V2000
  -13.5773    7.3370  -27.8510 C   0  0  0  0  0  0  0  0  0  0  0  0
  -13.1353    8.4028  -28.8093 C   0  0  0  0  0  0  0  0  0  0  0  0
  -13.3722    9.8073  -28.4197 C   0  0  0  0  0  0  0  0  0  0  0  0
  -13.1550   10.8955  -29.3969 C   0  0  0  0  0  0  0  0  0  0  0  0
  -13.5129   12.2480  -28.9227 C   0  0  0  0  0  0  0  0  0  0  0  0
  -13.2087   13.3154  -29.9840 C   0  0  0  0  0  0  0  0  0  0  0  0
  -14.3503   14.2607  -30.1580 C   0  0  0  0  0  0  0  0  0  0  0  0
  -14.3493   14.9384  -31.5126 C   0  0  0  0  0  0  0  0  0  0  0  0
  -14.5215   16.3863  -31.4282 C   0  0  0  0  0  0  0  0  0  0  0  0
  -15.2286   17.0716  -32.2889 C   0  0  0  0  0  0  0  0  0  0  0  0
  -14.7881   18.2093  -33.0948 C   0  0  0  0  0  0  0  0  0  0  0  0
  -15.9013   18.5794  -34.0545 C   0  0  0  0  0  0  0  0  0  0  0  0
  -15.6198   18.1698  -35.4674 C   0  0  0  0  0  0  0  0  0  0  0  0
  -16.6708   18.5991  -36.4479 C   0  0  0  0  0  0  0  0  0  0  0  0
  -16.2345   18.3644  -37.8773 C   0  0  0  0  0  0  0  0  0  0  0  0
  -17.2234   18.8715  -38.8738 C   0  0  0  0  0  0  0  0  0  0  0  0
  -17.5156   17.9264  -39.9994 C   0  0  0  0  0  0  0  0  0  0  0  0
  -16.9868   18.4008  -41.3149 C   0  0  0  0  0  0  0  0  0  0  0  0
  -17.7012   18.9753  -42.1548 O   0  0  0  0  0  0  0  0  0  0  0  0
  -15.6198   18.1742  -41.5869 N   0  0  0  0  0  0  0  0  0  0  0  0
  -14.8517   18.8421  -42.5602 C   0  0  0  0  0  0  0  0  0  0  0  0
  -13.4581   18.7603  -42.4276 C   0  0  0  0  0  0  0  0  0  0  0  0
  -12.5949   19.3681  -43.3118 C   0  0  0  0  0  0  0  0  0  0  0  0
  -13.0914   20.0907  -44.3769 C   0  0  0  0  0  0  0  0  0  0  0  0
  -14.4457   20.1927  -44.5388 C   0  0  0  0  0  0  0  0  0  0  0  0
  -15.2901   19.5654  -43.6257 C   0  0  0  0  0  0  0  0  0  0  0  0
  1  2  1  0
  2  3  1  0
  3  4  1  0
  4  5  1  0
  5  6  1  0
  6  7  1  0
  7  8  1  0
  8  9  1  0
  9 10  2  0
 10 11  1  0
 11 12  1  0
 12 13  1  0
 13 14  1  0
 14 15  1  0
 15 16  1  0
 16 17  1  0
 17 18  1  0
 18 19  2  0
 18 20  1  0
 20 21  1  0
 21 22  2  0
 22 23  1  0
 23 24  2  0
 24 25  1  0
 25 26  2  0
 26 21  1  0
M  END
$$$$
