
     RDKit          3D

 17 18  0  0  0  0  0  0  0  0999 V2000
  -17.8660   42.2760  -19.9655 Cl  0  0  0  0  0  0  0  0  0  0  0  0
  -20.2671   39.2644  -17.8593 O   0  0  0  0  0  0  0  0  0  0  0  0
  -20.1209   39.4733  -19.0686 C   0  0  0  0  0  0  0  0  0  0  0  0
  -20.8338   38.6656  -20.0258 N   0  0  0  0  0  0  0  0  0  0  0  0
  -20.9938   39.2417  -21.3384 C   0  0  0  0  0  0  0  0  0  0  0  0
  -19.7739   39.9224  -21.8415 C   0  0  0  0  0  0  0  0  0  0  0  0
  -19.0631   40.7672  -20.8625 C   0  0  0  0  0  0  0  0  0  0  0  0
  -18.1955   41.8128  -21.0239 N   0  0  0  0  0  0  0  0  0  0  0  0
  -17.7995   42.2572  -19.8199 C   0  0  0  0  0  0  0  0  0  0  0  0
  -16.8722   43.3649  -19.6115 C   0  0  0  0  0  0  0  0  0  0  0  0
  -16.3296   44.0438  -20.6773 C   0  0  0  0  0  0  0  0  0  0  0  0
  -15.4434   45.1031  -20.5046 C   0  0  0  0  0  0  0  0  0  0  0  0
  -15.0970   45.4868  -19.2620 N   0  0  0  0  0  0  0  0  0  0  0  0
  -15.6122   44.8408  -18.1956 C   0  0  0  0  0  0  0  0  0  0  0  0
  -16.4964   43.7833  -18.3506 C   0  0  0  0  0  0  0  0  0  0  0  0
  -18.4300   41.4761  -18.8748 C   0  0  0  0  0  0  0  0  0  0  0  0
  -19.2298   40.5331  -19.5184 C   0  0  0  0  0  0  0  0  0  0  0  0
  2  3  2  0
  3  4  1  0
  4  5  1  0
  5  6  1  0
  6  7  1  0
  7  8  1  0
  8  9  1  0
  9 10  1  0
 10 11  2  0
 11 12  1  0
 12 13  2  0
 13 14  1  0
 14 15  2  0
  9 16  2  0
 16 17  1  0
 17  3  1  0
 17  7  2  0
 15 10  1  0
M  END
$$$$
