
     RDKit          3D

 22 25  0  0  0  0  0  0  0  0999 V2000
  -18.5813   34.9914  -20.5990 C   0  0  0  0  0  0  0  0  0  0  0  0
  -18.4412   35.9832  -21.7257 C   0  0  1  0  0  0  0  0  0  0  0  0
  -17.8231   35.3631  -22.9563 C   0  0  0  0  0  0  0  0  0  0  0  0
  -18.3222   36.2783  -23.9482 O   0  0  0  0  0  0  0  0  0  0  0  0
  -19.6217   36.5853  -23.5520 C   0  0  0  0  0  0  0  0  0  0  0  0
  -19.7610   36.4320  -22.2533 C   0  0  0  0  0  0  0  0  0  0  0  0
  -21.0317   36.6894  -21.5796 C   0  0  0  0  0  0  0  0  0  0  0  0
  -21.1990   36.5528  -20.3415 O   0  0  0  0  0  0  0  0  0  0  0  0
  -22.1765   37.1323  -22.3945 C   0  0  0  0  0  0  0  0  0  0  0  0
  -23.2560   37.3505  -21.8286 O   0  0  0  0  0  0  0  0  0  0  0  0
  -22.0143   37.2987  -23.8209 C   0  0  0  0  0  0  0  0  0  0  0  0
  -20.7619   37.0256  -24.3569 C   0  0  0  0  0  0  0  0  0  0  0  0
  -20.5920   37.1741  -25.7180 C   0  0  0  0  0  0  0  0  0  0  0  0
  -21.6558   37.5854  -26.5097 C   0  0  0  0  0  0  0  0  0  0  0  0
  -22.8908   37.8550  -25.9820 C   0  0  0  0  0  0  0  0  0  0  0  0
  -23.0833   37.7141  -24.6224 C   0  0  0  0  0  0  0  0  0  0  0  0
  -24.3778   38.0019  -23.9687 C   0  0  0  0  0  0  0  0  0  0  0  0
  -25.3975   38.5310  -24.9505 C   0  0  0  0  0  0  0  0  0  0  0  0
  -25.2657   37.7710  -26.2391 C   0  0  0  0  0  0  0  0  0  0  0  0
  -23.9812   38.2706  -26.8926 C   0  0  0  0  0  0  0  0  0  0  0  0
  -24.0632   39.7506  -27.0810 C   0  0  0  0  0  0  0  0  0  0  0  0
  -23.8751   37.6254  -28.2565 C   0  0  0  0  0  0  0  0  0  0  0  0
  2  1  1  1
  2  3  1  0
  3  4  1  0
  4  5  1  0
  5  6  2  0
  6  7  1  0
  7  8  2  0
  7  9  1  0
  9 10  2  0
  9 11  1  0
 11 12  2  0
 12 13  1  0
 13 14  2  0
 14 15  1  0
 15 16  2  0
 16 17  1  0
 17 18  1  0
 18 19  1  0
 19 20  1  0
 20 21  1  0
 20 22  1  0
  6  2  1  0
 16 11  1  0
 12  5  1  0
 20 15  1  0
M  END
$$$$
