
     RDKit          3D

 30 33  0  0  0  0  0  0  0  0999 V2000
  -38.8278    7.7351  -33.0672 C   0  0  0  0  0  0  0  0  0  0  0  0
  -39.9645    7.8931  -32.0713 C   0  0  0  0  0  0  0  0  0  0  0  0
  -41.0757    8.7372  -32.6858 C   0  0  2  0  0  0  0  0  0  0  0  0
  -41.6603    9.7159  -31.7303 C   0  0  2  0  0  0  0  0  0  0  0  0
  -41.4764    9.4495  -30.2747 C   0  0  0  0  0  0  0  0  0  0  0  0
  -42.6449    8.8539  -29.5544 C   0  0  2  0  0  0  0  0  0  0  0  0
  -42.7215    7.4638  -29.6396 O   0  0  0  0  0  0  0  0  0  0  0  0
  -43.9565    9.5170  -29.8664 C   0  0  0  0  0  0  0  0  0  0  0  0
  -43.7723   10.6362  -30.8226 C   0  0  0  0  0  0  0  0  0  0  0  0
  -43.0351   10.1917  -32.0943 C   0  0  1  0  0  0  0  0  0  0  0  0
  -42.9653   11.4542  -32.9391 C   0  0  0  0  0  0  0  0  0  0  0  0
  -43.8911    9.1879  -32.7694 C   0  0  1  0  0  0  0  0  0  0  0  0
  -45.2767    9.6434  -33.0331 C   0  0  0  0  0  0  0  0  0  0  0  0
  -46.0435    8.7540  -33.9912 C   0  0  0  0  0  0  0  0  0  0  0  0
  -45.2831    8.4849  -35.2448 C   0  0  1  0  0  0  0  0  0  0  0  0
  -44.8248    9.7164  -35.9566 C   0  0  0  0  0  0  0  0  0  0  0  0
  -44.0642    7.7305  -34.7263 C   0  0  1  0  0  0  0  0  0  0  0  0
  -43.4398    7.0570  -35.8874 C   0  0  0  0  0  0  0  0  0  0  0  0
  -44.5857    6.9805  -36.8776 C   0  0  0  0  0  0  0  0  0  0  0  0
  -45.8165    7.4398  -36.1282 C   0  0  2  0  0  0  0  0  0  0  0  0
  -46.8874    7.6096  -37.0828 C   0  0  2  0  0  0  0  0  0  0  0  0
  -47.8950    8.7028  -36.8205 C   0  0  0  0  0  0  0  0  0  0  0  0
  -47.6524    6.4224  -37.5508 C   0  0  0  0  0  0  0  0  0  0  0  0
  -47.2282    5.9717  -38.9321 C   0  0  0  0  0  0  0  0  0  0  0  0
  -47.9723    4.7985  -39.3962 C   0  0  0  0  0  0  0  0  0  0  0  0
  -47.4071    3.9264  -40.0808 O   0  0  0  0  0  0  0  0  0  0  0  0
  -49.3009    4.6534  -39.0781 O   0  0  0  0  0  0  0  0  0  0  0  0
  -43.1600    8.6317  -33.9426 C   0  0  2  0  0  0  0  0  0  0  0  0
  -42.0236    7.8055  -33.3491 C   0  0  2  0  0  0  0  0  0  0  0  0
  -42.4618    6.7419  -32.6196 O   0  0  0  0  0  0  0  0  0  0  0  0
  1  2  1  0
  3  2  1  1
  3  4  1  0
  4  5  1  1
  5  6  1  0
  6  7  1  6
  6  8  1  0
  8  9  1  0
  9 10  1  0
 10 11  1  6
 10 12  1  0
 12 13  1  6
 13 14  1  0
 14 15  1  0
 15 16  1  6
 15 17  1  0
 17 18  1  6
 18 19  1  0
 20 19  1  6
 20 21  1  0
 21 22  1  1
 21 23  1  0
 23 24  1  0
 24 25  1  0
 25 26  2  0
 25 27  1  0
 17 28  1  0
 28 29  1  1
 29 30  1  1
 29  3  1  0
 10  4  1  0
 28 12  1  0
 20 15  1  0
M  END
$$$$
