
     RDKit          3D

 30 32  0  0  0  0  0  0  0  0999 V2000
  -18.1865   40.8872  -21.5039 Cl  0  0  0  0  0  0  0  0  0  0  0  0
  -17.6177   31.2328  -21.5155 N   0  0  0  0  0  0  0  0  0  0  0  0
  -17.9800   32.3498  -21.3981 C   0  0  0  0  0  0  0  0  0  0  0  0
  -18.4420   33.7128  -21.2374 C   0  0  0  0  0  0  0  0  0  0  0  0
  -17.9640   34.6163  -22.1367 C   0  0  0  0  0  0  0  0  0  0  0  0
  -18.3466   35.9613  -22.0197 C   0  0  0  0  0  0  0  0  0  0  0  0
  -19.1802   36.3585  -21.0244 C   0  0  0  0  0  0  0  0  0  0  0  0
  -19.5573   37.7598  -20.8344 C   0  0  0  0  0  0  0  0  0  0  0  0
  -20.3285   38.3660  -21.8762 N   0  0  0  0  0  0  0  0  0  0  0  0
  -21.6597   38.2023  -22.0174 C   0  0  0  0  0  0  0  0  0  0  0  0
  -22.0288   38.8718  -23.1258 N   0  0  0  0  0  0  0  0  0  0  0  0
  -20.9314   39.4366  -23.6484 C   0  0  0  0  0  0  0  0  0  0  0  0
  -19.8359   39.1365  -22.8784 C   0  0  0  0  0  0  0  0  0  0  0  0
  -18.4298   39.5681  -23.0323 C   0  0  0  0  0  0  0  0  0  0  0  0
  -18.1942   40.8376  -22.3634 N   0  0  0  0  0  0  0  0  0  0  0  0
  -16.7839   41.1989  -22.4270 C   0  0  0  0  0  0  0  0  0  0  0  0
  -16.5488   42.2574  -21.3821 C   0  0  0  0  0  0  0  0  0  0  0  0
  -17.3824   43.4029  -21.7363 N   0  0  0  0  0  0  0  0  0  0  0  0
  -17.2753   44.6293  -21.0409 C   0  0  0  0  0  0  0  0  0  0  0  0
  -18.0520   45.7037  -21.3025 C   0  0  0  0  0  0  0  0  0  0  0  0
  -17.8881   46.9082  -20.5938 C   0  0  0  0  0  0  0  0  0  0  0  0
  -16.9336   47.0054  -19.6239 C   0  0  0  0  0  0  0  0  0  0  0  0
  -16.1221   45.9248  -19.3297 C   0  0  0  0  0  0  0  0  0  0  0  0
  -14.8921   46.0251  -18.0954 Cl  0  0  0  0  0  0  0  0  0  0  0  0
  -16.3022   44.7399  -20.0456 C   0  0  0  0  0  0  0  0  0  0  0  0
  -18.2936   43.2146  -22.8129 C   0  0  0  0  0  0  0  0  0  0  0  0
  -18.4317   44.1329  -23.6468 O   0  0  0  0  0  0  0  0  0  0  0  0
  -19.0249   41.9130  -22.8628 C   0  0  0  0  0  0  0  0  0  0  0  0
  -19.6622   35.3945  -20.1026 C   0  0  0  0  0  0  0  0  0  0  0  0
  -19.2879   34.0852  -20.2200 C   0  0  0  0  0  0  0  0  0  0  0  0
  2  3  3  0
  3  4  1  0
  4  5  2  0
  5  6  1  0
  6  7  2  0
  7  8  1  0
  8  9  1  0
  9 10  1  0
 10 11  2  0
 11 12  1  0
 12 13  2  0
 13 14  1  0
 14 15  1  0
 15 16  1  0
 16 17  1  0
 17 18  1  0
 18 19  1  0
 19 20  2  0
 20 21  1  0
 21 22  2  0
 22 23  1  0
 23 24  1  0
 23 25  2  0
 18 26  1  0
 26 27  2  0
 26 28  1  0
  7 29  1  0
 29 30  2  0
 30  4  1  0
 13  9  1  0
 28 15  1  0
 25 19  1  0
M  END
$$$$
