
     RDKit          3D

 15 16  0  0  0  0  0  0  0  0999 V2000
  -21.2935   16.5808  -30.8153 O   0  0  0  0  0  0  0  0  0  0  0  0
  -20.1940   16.1922  -31.2804 C   0  0  0  0  0  0  0  0  0  0  0  0
  -20.0301   16.1931  -32.6537 O   0  0  0  0  0  0  0  0  0  0  0  0
  -19.1058   15.7470  -30.3923 C   0  0  0  0  0  0  0  0  0  0  0  0
  -19.1065   15.6684  -29.0340 C   0  0  0  0  0  0  0  0  0  0  0  0
  -17.8441   15.1891  -28.6460 C   0  0  0  0  0  0  0  0  0  0  0  0
  -17.1490   15.0050  -29.8056 C   0  0  0  0  0  0  0  0  0  0  0  0
  -15.7995   14.5299  -30.0307 C   0  0  0  0  0  0  0  0  0  0  0  0
  -14.9573   15.2690  -30.8794 C   0  0  0  0  0  0  0  0  0  0  0  0
  -13.6689   14.9081  -31.1577 C   0  0  0  0  0  0  0  0  0  0  0  0
  -13.1875   13.7578  -30.5674 C   0  0  0  0  0  0  0  0  0  0  0  0
  -13.9396   12.9909  -29.7364 C   0  0  0  0  0  0  0  0  0  0  0  0
  -15.2549   13.4002  -29.4802 C   0  0  0  0  0  0  0  0  0  0  0  0
  -16.1772   12.3825  -28.4084 Cl  0  0  0  0  0  0  0  0  0  0  0  0
  -17.9461   15.3513  -30.8036 O   0  0  0  0  0  0  0  0  0  0  0  0
  1  2  2  0
  2  3  1  0
  2  4  1  0
  4  5  2  0
  5  6  1  0
  6  7  2  0
  7  8  1  0
  8  9  2  0
  9 10  1  0
 10 11  2  0
 11 12  1  0
 12 13  2  0
 13 14  1  0
  7 15  1  0
 15  4  1  0
 13  8  1  0
M  END
$$$$
