
     RDKit          3D

 28 31  0  0  0  0  0  0  0  0999 V2000
  -19.0564   42.9650  -19.3988 C   0  0  0  0  0  0  0  0  0  0  0  0
  -19.5046   41.6262  -19.7997 N   0  0  0  0  0  0  0  0  0  0  0  0
  -18.5787   40.5501  -19.9166 C   0  0  0  0  0  0  0  0  0  0  0  0
  -17.7405   40.3865  -19.0184 O   0  0  0  0  0  0  0  0  0  0  0  0
  -18.6092   39.6570  -21.0629 C   0  0  0  0  0  0  0  0  0  0  0  0
  -19.5395   39.8572  -22.0652 C   0  0  0  0  0  0  0  0  0  0  0  0
  -19.5969   39.0308  -23.1650 C   0  0  0  0  0  0  0  0  0  0  0  0
  -20.5090   39.1931  -24.1897 O   0  0  0  0  0  0  0  0  0  0  0  0
  -21.4642   38.2292  -24.3902 C   0  0  0  0  0  0  0  0  0  0  0  0
  -22.7310   38.2267  -23.8441 C   0  0  0  0  0  0  0  0  0  0  0  0
  -23.6743   37.2673  -24.0470 C   0  0  0  0  0  0  0  0  0  0  0  0
  -23.3861   36.1723  -24.8685 C   0  0  0  0  0  0  0  0  0  0  0  0
  -24.1397   35.1442  -25.1970 N   0  0  0  0  0  0  0  0  0  0  0  0
  -23.9180   34.2400  -25.8683 C   0  0  0  0  0  0  0  0  0  0  0  0
  -24.5017   33.0335  -26.3838 N   0  0  0  0  0  0  0  0  0  0  0  0
  -23.7150   32.3023  -27.3443 C   0  0  2  0  0  0  0  0  0  0  0  0
  -24.1193   32.7655  -28.7334 C   0  0  0  0  0  0  0  0  0  0  0  0
  -25.6237   32.7715  -28.7890 C   0  0  0  0  0  0  0  0  0  0  0  0
  -26.1468   31.4475  -28.3311 C   0  0  0  0  0  0  0  0  0  0  0  0
  -25.0922   30.3906  -28.1892 C   0  0  0  0  0  0  0  0  0  0  0  0
  -23.9591   30.8218  -27.2797 C   0  0  1  0  0  0  0  0  0  0  0  0
  -22.7991   30.1806  -27.7675 O   0  0  0  0  0  0  0  0  0  0  0  0
  -22.1315   34.6517  -26.3786 S   0  0  0  0  0  0  0  0  0  0  0  0
  -22.1409   36.1512  -25.4202 C   0  0  0  0  0  0  0  0  0  0  0  0
  -21.1649   37.1446  -25.2099 C   0  0  0  0  0  0  0  0  0  0  0  0
  -18.7014   37.9904  -23.2490 C   0  0  0  0  0  0  0  0  0  0  0  0
  -17.7557   37.7791  -22.2398 C   0  0  0  0  0  0  0  0  0  0  0  0
  -17.7604   38.6292  -21.1941 N   0  0  0  0  0  0  0  0  0  0  0  0
  1  2  1  0
  2  3  1  0
  3  4  2  0
  3  5  1  0
  5  6  2  0
  6  7  1  0
  7  8  1  0
  8  9  1  0
  9 10  2  0
 10 11  1  0
 11 12  2  0
 12 13  1  0
 13 14  2  0
 14 15  1  0
 16 15  1  1
 16 17  1  0
 17 18  1  0
 18 19  1  0
 19 20  1  0
 20 21  1  0
 21 22  1  6
 14 23  1  0
 23 24  1  0
 24 25  2  0
  7 26  2  0
 26 27  1  0
 27 28  2  0
 28  5  1  0
 25  9  1  0
 24 12  1  0
 21 16  1  0
M  END
$$$$
