
     RDKit          3D

 26 29  0  0  0  0  0  0  0  0999 V2000
  -15.0075   19.7660  -42.9886 N   0  0  0  0  0  0  0  0  0  0  0  0
  -15.9817   19.6785  -41.9505 C   0  0  0  0  0  0  0  0  0  0  0  0
  -17.1913   20.2424  -42.1655 N   0  0  0  0  0  0  0  0  0  0  0  0
  -18.1236   20.1642  -41.1864 C   0  0  0  0  0  0  0  0  0  0  0  0
  -19.3914   20.7582  -41.4202 N   0  0  0  0  0  0  0  0  0  0  0  0
  -17.8693   19.5300  -39.9894 C   0  0  0  0  0  0  0  0  0  0  0  0
  -18.7972   19.4543  -39.0198 N   0  0  0  0  0  0  0  0  0  0  0  0
  -18.5748   18.8410  -37.8428 C   0  0  0  0  0  0  0  0  0  0  0  0
  -19.5667   18.7469  -36.7767 C   0  0  0  0  0  0  0  0  0  0  0  0
  -19.3590   19.3630  -35.5530 C   0  0  0  0  0  0  0  0  0  0  0  0
  -20.3400   19.2318  -34.5929 C   0  0  0  0  0  0  0  0  0  0  0  0
  -21.5016   18.5170  -34.8128 C   0  0  0  0  0  0  0  0  0  0  0  0
  -21.7000   17.9107  -36.0247 C   0  0  0  0  0  0  0  0  0  0  0  0
  -22.8531   17.1846  -36.2821 O   0  0  0  0  0  0  0  0  0  0  0  0
  -20.7381   18.0305  -36.9876 C   0  0  0  0  0  0  0  0  0  0  0  0
  -17.3188   18.2774  -37.6687 C   0  0  0  0  0  0  0  0  0  0  0  0
  -17.0640   17.6105  -36.4040 C   0  0  0  0  0  0  0  0  0  0  0  0
  -16.1131   18.1501  -35.5688 C   0  0  0  0  0  0  0  0  0  0  0  0
  -15.8456   17.5292  -34.3430 C   0  0  0  0  0  0  0  0  0  0  0  0
  -16.5340   16.3857  -33.9819 C   0  0  0  0  0  0  0  0  0  0  0  0
  -17.4869   15.8476  -34.8219 C   0  0  0  0  0  0  0  0  0  0  0  0
  -18.1548   14.6998  -34.4227 O   0  0  0  0  0  0  0  0  0  0  0  0
  -17.7465   16.4714  -36.0389 C   0  0  0  0  0  0  0  0  0  0  0  0
  -16.3808   18.3523  -38.6448 N   0  0  0  0  0  0  0  0  0  0  0  0
  -16.6213   18.9690  -39.8140 C   0  0  0  0  0  0  0  0  0  0  0  0
  -15.6828   19.0426  -40.7884 N   0  0  0  0  0  0  0  0  0  0  0  0
  1  2  1  0
  2  3  2  0
  3  4  1  0
  4  5  1  0
  4  6  2  0
  6  7  1  0
  7  8  2  0
  8  9  1  0
  9 10  2  0
 10 11  1  0
 11 12  2  0
 12 13  1  0
 13 14  1  0
 13 15  2  0
  8 16  1  0
 16 17  1  0
 17 18  2  0
 18 19  1  0
 19 20  2  0
 20 21  1  0
 21 22  1  0
 21 23  2  0
 16 24  2  0
 24 25  1  0
 25 26  2  0
 26  2  1  0
 25  6  1  0
 15  9  1  0
 23 17  1  0
M  END
$$$$
