
     RDKit          3D

 47 51  0  0  0  0  0  0  0  0999 V2000
  -16.1410   17.6698  -36.0275 C   0  0  0  0  0  0  0  0  0  0  0  0
  -16.7283   17.8028  -37.4100 C   0  0  0  0  0  0  0  0  0  0  0  0
  -16.1980   16.9531  -38.3746 N   0  0  0  0  0  0  0  0  0  0  0  0
  -16.1258   15.5654  -38.1928 C   0  0  0  0  0  0  0  0  0  0  0  0
  -14.9157   15.1580  -37.3991 C   0  0  0  0  0  0  0  0  0  0  0  0
  -15.3476   17.5163  -39.4008 C   0  0  0  0  0  0  0  0  0  0  0  0
  -15.3990   16.6368  -40.5990 C   0  0  0  0  0  0  0  0  0  0  0  0
  -14.7641   17.1182  -41.7891 N   0  0  0  0  0  0  0  0  0  0  0  0
  -15.4541   16.7917  -43.0390 C   0  0  0  0  0  0  0  0  0  0  0  0
  -14.7318   15.9084  -43.9620 C   0  0  0  0  0  0  0  0  0  0  0  0
  -13.5406   15.2738  -43.7048 C   0  0  0  0  0  0  0  0  0  0  0  0
  -12.9215   14.4044  -44.6075 C   0  0  0  0  0  0  0  0  0  0  0  0
  -13.4999   14.1445  -45.8238 C   0  0  0  0  0  0  0  0  0  0  0  0
  -12.8632   13.2301  -46.7721 C   0  0  0  0  0  0  0  0  0  0  0  0
  -13.5440   12.1581  -47.3076 C   0  0  0  0  0  0  0  0  0  0  0  0
  -12.9271   11.3095  -48.1925 C   0  0  0  0  0  0  0  0  0  0  0  0
  -11.6108   11.4845  -48.5857 C   0  0  0  0  0  0  0  0  0  0  0  0
  -10.9886   10.5503  -49.5362 C   0  0  0  0  0  0  0  0  0  0  0  0
   -9.8828    9.9866  -48.9185 F   0  0  0  0  0  0  0  0  0  0  0  0
  -11.8801    9.6001  -49.9899 F   0  0  0  0  0  0  0  0  0  0  0  0
  -10.5354   11.2443  -50.6288 F   0  0  0  0  0  0  0  0  0  0  0  0
  -10.9199   12.5545  -48.0558 C   0  0  0  0  0  0  0  0  0  0  0  0
  -11.5484   13.4008  -47.1680 C   0  0  0  0  0  0  0  0  0  0  0  0
  -14.6971   14.7721  -46.1038 C   0  0  0  0  0  0  0  0  0  0  0  0
  -15.3078   15.6272  -45.2178 C   0  0  0  0  0  0  0  0  0  0  0  0
  -13.5602   17.8209  -41.9156 C   0  0  0  0  0  0  0  0  0  0  0  0
  -12.9886   18.0998  -40.7650 O   0  0  0  0  0  0  0  0  0  0  0  0
  -12.7868   18.3242  -43.0273 C   0  0  0  0  0  0  0  0  0  0  0  0
  -11.8718   19.3801  -42.9191 N   0  0  0  0  0  0  0  0  0  0  0  0
  -12.1760   20.6141  -43.4091 C   0  0  0  0  0  0  0  0  0  0  0  0
  -13.7322   20.9093  -44.2697 S   0  0  0  0  0  0  0  0  0  0  0  0
  -13.6839   22.6021  -44.9112 C   0  0  0  0  0  0  0  0  0  0  0  0
  -15.0807   22.9014  -45.3774 C   0  0  0  0  0  0  0  0  0  0  0  0
  -16.0365   23.4167  -44.5271 C   0  0  0  0  0  0  0  0  0  0  0  0
  -17.3086   23.6652  -45.0405 C   0  0  0  0  0  0  0  0  0  0  0  0
  -17.5800   23.3933  -46.3731 C   0  0  0  0  0  0  0  0  0  0  0  0
  -18.8177   23.6380  -46.8643 F   0  0  0  0  0  0  0  0  0  0  0  0
  -16.6181   22.8793  -47.2120 C   0  0  0  0  0  0  0  0  0  0  0  0
  -15.3392   22.6257  -46.7100 C   0  0  0  0  0  0  0  0  0  0  0  0
  -11.3412   21.6457  -43.2649 N   0  0  0  0  0  0  0  0  0  0  0  0
  -10.1425   21.5579  -42.6310 C   0  0  0  0  0  0  0  0  0  0  0  0
   -9.3779   22.5521  -42.5131 O   0  0  0  0  0  0  0  0  0  0  0  0
   -9.8333   20.3085  -42.1337 C   0  0  0  0  0  0  0  0  0  0  0  0
  -10.6808   19.2281  -42.2712 C   0  0  0  0  0  0  0  0  0  0  0  0
  -10.0195   18.0639  -41.5842 C   0  0  0  0  0  0  0  0  0  0  0  0
   -9.1397   18.7589  -40.5368 C   0  0  0  0  0  0  0  0  0  0  0  0
   -8.5975   19.9021  -41.3738 C   0  0  0  0  0  0  0  0  0  0  0  0
  1  2  1  0
  2  3  1  0
  3  4  1  0
  4  5  1  0
  3  6  1  0
  6  7  1  0
  7  8  1  0
  8  9  1  0
  9 10  1  0
 10 11  2  0
 11 12  1  0
 12 13  2  0
 13 14  1  0
 14 15  2  0
 15 16  1  0
 16 17  2  0
 17 18  1  0
 18 19  1  0
 18 20  1  0
 18 21  1  0
 17 22  1  0
 22 23  2  0
 13 24  1  0
 24 25  2  0
  8 26  1  0
 26 27  2  0
 26 28  1  0
 28 29  1  0
 29 30  1  0
 30 31  1  0
 31 32  1  0
 32 33  1  0
 33 34  2  0
 34 35  1  0
 35 36  2  0
 36 37  1  0
 36 38  1  0
 38 39  2  0
 30 40  2  0
 40 41  1  0
 41 42  2  0
 41 43  1  0
 43 44  2  0
 44 45  1  0
 45 46  1  0
 46 47  1  0
 25 10  1  0
 44 29  1  0
 23 14  1  0
 39 33  1  0
 47 43  1  0
M  END
$$$$
