
     RDKit          3D

 26 27  0  0  0  0  0  0  0  0999 V2000
  -28.8724   13.9023  -20.8963 C   0  0  0  0  0  0  0  0  0  0  0  0
  -29.5567   13.1543  -21.9121 N   0  0  0  0  0  0  0  0  0  0  0  0
  -30.9623   13.3260  -21.9749 C   0  0  2  0  0  0  0  0  0  0  0  0
  -31.6822   13.3995  -20.6704 C   0  0  0  0  0  0  0  0  0  0  0  0
  -31.5483   12.1990  -19.8002 C   0  0  2  0  0  0  0  0  0  0  0  0
  -32.0160   11.0285  -20.3579 O   0  0  0  0  0  0  0  0  0  0  0  0
  -32.3437   12.4441  -18.5602 C   0  0  0  0  0  0  0  0  0  0  0  0
  -31.7479   12.8272  -17.3766 C   0  0  0  0  0  0  0  0  0  0  0  0
  -32.4934   13.0496  -16.2400 C   0  0  0  0  0  0  0  0  0  0  0  0
  -33.8573   12.8934  -16.2608 C   0  0  0  0  0  0  0  0  0  0  0  0
  -34.4457   12.5089  -17.4526 C   0  0  0  0  0  0  0  0  0  0  0  0
  -33.7125   12.2850  -18.5897 C   0  0  0  0  0  0  0  0  0  0  0  0
  -31.4981   12.2128  -22.8689 C   0  0  0  0  0  0  0  0  0  0  0  0
  -31.1433   12.6171  -24.2854 C   0  0  0  0  0  0  0  0  0  0  0  0
  -29.9361   13.4974  -24.3351 C   0  0  0  0  0  0  0  0  0  0  0  0
  -28.9750   13.3211  -23.2249 C   0  0  2  0  0  0  0  0  0  0  0  0
  -28.0185   12.1374  -23.4234 C   0  0  0  0  0  0  0  0  0  0  0  0
  -27.3494   12.1751  -24.7276 C   0  0  0  0  0  0  0  0  0  0  0  0
  -27.8756   11.6558  -25.7378 O   0  0  0  0  0  0  0  0  0  0  0  0
  -26.0578   12.8187  -24.8715 C   0  0  0  0  0  0  0  0  0  0  0  0
  -25.4272   13.4216  -23.8032 C   0  0  0  0  0  0  0  0  0  0  0  0
  -24.1932   14.0270  -23.9657 C   0  0  0  0  0  0  0  0  0  0  0  0
  -23.5603   14.0450  -25.1968 C   0  0  0  0  0  0  0  0  0  0  0  0
  -24.1812   13.4458  -26.2714 C   0  0  0  0  0  0  0  0  0  0  0  0
  -25.4002   12.8507  -26.0990 C   0  0  0  0  0  0  0  0  0  0  0  0
  -29.1391   13.0297  -22.3895 Cl  0  0  0  0  0  0  0  0  0  0  0  0
  1  2  1  0
  2  3  1  0
  3  4  1  1
  4  5  1  0
  5  6  1  6
  5  7  1  0
  7  8  2  0
  8  9  1  0
  9 10  2  0
 10 11  1  0
 11 12  2  0
  3 13  1  0
 13 14  1  0
 14 15  1  0
 15 16  1  0
 16 17  1  6
 17 18  1  0
 18 19  2  0
 18 20  1  0
 20 21  2  0
 21 22  1  0
 22 23  2  0
 23 24  1  0
 24 25  2  0
 16  2  1  0
 25 20  1  0
 12  7  1  0
M  END
$$$$
