
     RDKit          3D

 11 11  0  0  0  0  0  0  0  0999 V2000
  -17.7819   32.7972  -21.5834 O   0  0  0  0  0  0  0  0  0  0  0  0
  -18.4192   32.4576  -22.6045 C   0  0  0  0  0  0  0  0  0  0  0  0
  -18.7884   31.1186  -22.7684 N   0  0  0  0  0  0  0  0  0  0  0  0
  -18.4520   30.1565  -21.8364 O   0  0  0  0  0  0  0  0  0  0  0  0
  -18.7621   33.4617  -23.5983 C   0  0  0  0  0  0  0  0  0  0  0  0
  -18.4106   34.7792  -23.4203 C   0  0  0  0  0  0  0  0  0  0  0  0
  -18.7488   35.7315  -24.3868 C   0  0  0  0  0  0  0  0  0  0  0  0
  -19.4318   35.3483  -25.5122 C   0  0  0  0  0  0  0  0  0  0  0  0
  -19.7850   34.0271  -25.6920 C   0  0  0  0  0  0  0  0  0  0  0  0
  -19.4627   33.0780  -24.7560 C   0  0  0  0  0  0  0  0  0  0  0  0
  -19.8015   31.7433  -24.9044 O   0  0  0  0  0  0  0  0  0  0  0  0
  1  2  2  0
  2  3  1  0
  3  4  1  0
  2  5  1  0
  5  6  2  0
  6  7  1  0
  7  8  2  0
  8  9  1  0
  9 10  2  0
 10 11  1  0
 10  5  1  0
M  END
$$$$
