
     RDKit          3D

 35 38  0  0  0  0  0  0  0  0999 V2000
  -19.1732   -2.5613  -34.3086 C   0  0  0  0  0  0  0  0  0  0  0  0
  -18.8613   -1.2251  -33.6846 C   0  0  0  0  0  0  0  0  0  0  0  0
  -17.4138   -1.0908  -33.3494 C   0  0  0  0  0  0  0  0  0  0  0  0
  -16.8064   -1.6195  -32.2532 N   0  0  0  0  0  0  0  0  0  0  0  0
  -15.4961   -1.3103  -32.2561 C   0  0  0  0  0  0  0  0  0  0  0  0
  -14.4172   -1.5594  -31.4359 C   0  0  0  0  0  0  0  0  0  0  0  0
  -14.6094   -2.3613  -30.1996 C   0  0  0  0  0  0  0  0  0  0  0  0
  -13.1935   -1.0893  -31.7348 N   0  0  0  0  0  0  0  0  0  0  0  0
  -12.9549   -0.3546  -32.8436 C   0  0  0  0  0  0  0  0  0  0  0  0
  -11.5740    0.1292  -33.1049 C   0  0  0  0  0  0  0  0  0  0  0  0
  -14.0209   -0.0969  -33.6731 C   0  0  0  0  0  0  0  0  0  0  0  0
  -15.3007   -0.5532  -33.4180 C   0  0  0  0  0  0  0  0  0  0  0  0
  -16.4774   -0.4384  -34.0563 N   0  0  0  0  0  0  0  0  0  0  0  0
  -16.7349    0.2446  -35.2707 C   0  0  0  0  0  0  0  0  0  0  0  0
  -16.6499   -0.4088  -36.4779 C   0  0  0  0  0  0  0  0  0  0  0  0
  -16.9043    0.2726  -37.6523 C   0  0  0  0  0  0  0  0  0  0  0  0
  -17.2484    1.6084  -37.6837 C   0  0  0  0  0  0  0  0  0  0  0  0
  -17.5149    2.3058  -38.9765 C   0  0  0  0  0  0  0  0  0  0  0  0
  -16.5455    3.4459  -39.1881 C   0  0  0  0  0  0  0  0  0  0  0  0
  -16.1709    3.5459  -40.5813 N   0  0  0  0  0  0  0  0  0  0  0  0
  -15.1117    4.3640  -40.9971 C   0  0  0  0  0  0  0  0  0  0  0  0
  -14.2610    4.8689  -40.2206 O   0  0  0  0  0  0  0  0  0  0  0  0
  -14.9501    4.6709  -42.3879 N   0  0  0  0  0  0  0  0  0  0  0  0
  -14.6478    6.2877  -42.9161 S   0  0  0  0  0  6  0  0  0  0  0  0
  -15.5073    7.2751  -42.1790 O   0  0  0  0  0  0  0  0  0  0  0  0
  -15.0032    6.4160  -44.3809 O   0  0  0  0  0  0  0  0  0  0  0  0
  -12.9702    6.6826  -42.6368 C   0  0  0  0  0  0  0  0  0  0  0  0
  -12.0295    5.6834  -42.5637 C   0  0  0  0  0  0  0  0  0  0  0  0
  -10.6887    5.9943  -42.3407 C   0  0  0  0  0  0  0  0  0  0  0  0
  -10.2687    7.2985  -42.1882 C   0  0  0  0  0  0  0  0  0  0  0  0
   -8.8245    7.5808  -41.9516 C   0  0  0  0  0  0  0  0  0  0  0  0
  -11.2139    8.2973  -42.2621 C   0  0  0  0  0  0  0  0  0  0  0  0
  -12.5419    7.9843  -42.4833 C   0  0  0  0  0  0  0  0  0  0  0  0
  -17.3327    2.2611  -36.4693 C   0  0  0  0  0  0  0  0  0  0  0  0
  -17.0804    1.5891  -35.2906 C   0  0  0  0  0  0  0  0  0  0  0  0
  1  2  1  0
  2  3  1  0
  3  4  2  0
  4  5  1  0
  5  6  2  0
  6  7  1  0
  6  8  1  0
  8  9  2  0
  9 10  1  0
  9 11  1  0
 11 12  2  0
 12 13  1  0
 13 14  1  0
 14 15  2  0
 15 16  1  0
 16 17  2  0
 17 18  1  0
 18 19  1  0
 19 20  1  0
 20 21  1  0
 21 22  2  0
 21 23  1  0
 23 24  1  0
 24 25  2  0
 24 26  2  0
 24 27  1  0
 27 28  2  0
 28 29  1  0
 29 30  2  0
 30 31  1  0
 30 32  1  0
 32 33  2  0
 17 34  1  0
 34 35  2  0
 13  3  1  0
 35 14  1  0
 12  5  1  0
 33 27  1  0
M  END
$$$$
