
     RDKit          3D

 29 32  0  0  0  0  0  0  0  0999 V2000
  -22.2673   18.0056  -37.7086 C   0  0  0  0  0  0  0  0  0  0  0  0
  -21.0670   17.8337  -36.9859 N   0  0  0  0  0  0  0  0  0  0  0  0
  -20.9187   18.4949  -35.7494 C   0  0  0  0  0  0  0  0  0  0  0  0
  -19.6168   19.2793  -35.6240 C   0  0  0  0  0  0  0  0  0  0  0  0
  -18.5249   18.3400  -35.9881 C   0  0  0  0  0  0  0  0  0  0  0  0
  -17.1513   18.6457  -35.5725 C   0  0  0  0  0  0  0  0  0  0  0  0
  -16.2545   17.6025  -35.2566 N   0  0  0  0  0  0  0  0  0  0  0  0
  -16.0428   16.9836  -33.9931 C   0  0  0  0  0  0  0  0  0  0  0  0
  -14.7588   16.6613  -33.5976 C   0  0  0  0  0  0  0  0  0  0  0  0
  -14.4983   16.0584  -32.3870 C   0  0  0  0  0  0  0  0  0  0  0  0
  -15.6034   15.7949  -31.5898 C   0  0  0  0  0  0  0  0  0  0  0  0
  -15.6854   15.2258  -30.3771 N   0  0  0  0  0  0  0  0  0  0  0  0
  -16.9802   15.1909  -30.0207 C   0  0  0  0  0  0  0  0  0  0  0  0
  -17.7389   15.7493  -31.0266 C   0  0  0  0  0  0  0  0  0  0  0  0
  -19.1873   15.9258  -31.0856 C   0  0  0  0  0  0  0  0  0  0  0  0
  -20.0320   14.9373  -30.5679 C   0  0  0  0  0  0  0  0  0  0  0  0
  -21.4044   15.0665  -30.6020 C   0  0  0  0  0  0  0  0  0  0  0  0
  -21.9991   16.1831  -31.1520 C   0  0  0  0  0  0  0  0  0  0  0  0
  -21.1746   17.1714  -31.6694 C   0  0  0  0  0  0  0  0  0  0  0  0
  -21.8001   18.2712  -32.2099 O   0  0  0  0  0  0  0  0  0  0  0  0
  -22.1059   19.4449  -31.4918 C   0  0  0  0  0  0  0  0  0  0  0  0
  -22.9995   19.1474  -30.4624 F   0  0  0  0  0  0  0  0  0  0  0  0
  -22.7001   20.4167  -32.2622 F   0  0  0  0  0  0  0  0  0  0  0  0
  -20.9696   20.0035  -30.9121 F   0  0  0  0  0  0  0  0  0  0  0  0
  -19.7972   17.0275  -31.6279 C   0  0  0  0  0  0  0  0  0  0  0  0
  -16.8500   16.1180  -31.9953 N   0  0  0  0  0  0  0  0  0  0  0  0
  -17.0864   16.6979  -33.1628 N   0  0  0  0  0  0  0  0  0  0  0  0
  -18.6701   18.1151  -37.4972 C   0  0  0  0  0  0  0  0  0  0  0  0
  -19.9492   17.3159  -37.6506 C   0  0  0  0  0  0  0  0  0  0  0  0
  1  2  1  0
  2  3  1  0
  3  4  1  0
  4  5  1  0
  5  6  1  0
  6  7  1  0
  7  8  1  0
  8  9  1  0
  9 10  2  0
 10 11  1  0
 11 12  2  0
 12 13  1  0
 13 14  2  0
 14 15  1  0
 15 16  2  0
 16 17  1  0
 17 18  2  0
 18 19  1  0
 19 20  1  0
 20 21  1  0
 21 22  1  0
 21 23  1  0
 21 24  1  0
 19 25  2  0
 14 26  1  0
 26 27  1  0
  5 28  1  0
 28 29  1  0
 29  2  1  0
 27  8  2  0
 26 11  1  0
 25 15  1  0
M  END
$$$$
