
     RDKit          3D

 42 43  0  0  0  0  0  0  0  0999 V2000
  -42.9288   10.4984  -29.5062 C   0  0  0  0  0  0  0  0  0  0  0  0
  -43.5174   10.4598  -30.8666 C   0  0  0  0  0  0  0  0  0  0  0  0
  -42.7330   11.4550  -31.7368 C   0  0  0  0  0  0  0  0  0  0  0  0
  -43.6152    9.1270  -31.5266 C   0  0  1  0  0  0  0  0  0  0  0  0
  -42.6156    8.1323  -30.9683 C   0  0  0  0  0  0  0  0  0  0  0  0
  -42.0869    8.4888  -29.8915 O   0  0  0  0  0  0  0  0  0  0  0  0
  -42.3285    6.9173  -31.6304 N   0  0  0  0  0  0  0  0  0  0  0  0
  -42.8958    6.4989  -32.8829 C   0  0  1  0  0  0  0  0  0  0  0  0
  -41.8924    6.1585  -33.9339 C   0  0  0  0  0  0  0  0  0  0  0  0
  -41.1481    4.8912  -33.8126 C   0  0  0  0  0  0  0  0  0  0  0  0
  -41.0828    4.2719  -32.4537 C   0  0  0  0  0  0  0  0  0  0  0  0
  -40.3902    3.0018  -32.4561 N   0  0  0  0  0  0  0  0  0  0  0  0
  -40.3349    2.2149  -31.2870 C   0  0  0  0  0  0  0  0  0  0  0  0
  -40.9983    1.0888  -31.2962 N   0  0  0  0  0  0  0  0  0  0  0  0
  -39.5950    2.6078  -30.1263 N   0  0  0  0  0  0  0  0  0  0  0  0
  -43.8970    5.4206  -32.7766 C   0  0  0  0  0  0  0  0  0  0  0  0
  -44.2440    5.0604  -31.6107 O   0  0  0  0  0  0  0  0  0  0  0  0
  -44.4957    4.7647  -33.8653 N   0  0  0  0  0  0  0  0  0  0  0  0
  -44.9689    5.4838  -35.0586 C   0  0  0  0  0  0  0  0  0  0  0  0
  -46.3878    5.1961  -35.3526 C   0  0  0  0  0  0  0  0  0  0  0  0
  -46.6701    3.9814  -35.6310 O   0  0  0  0  0  0  0  0  0  0  0  0
  -47.4499    6.1117  -35.3578 N   0  0  0  0  0  0  0  0  0  0  0  0
  -47.3006    7.5572  -35.5571 C   0  0  1  0  0  0  0  0  0  0  0  0
  -48.0042    7.8332  -36.8849 C   0  0  0  0  0  0  0  0  0  0  0  0
  -49.4328    7.5539  -36.8720 C   0  0  0  0  0  0  0  0  0  0  0  0
  -49.9494    7.0460  -35.8588 O   0  0  0  0  0  0  0  0  0  0  0  0
  -50.2223    7.8435  -37.9643 O   0  0  0  0  0  0  0  0  0  0  0  0
  -48.0515    8.3439  -34.5512 C   0  0  0  0  0  0  0  0  0  0  0  0
  -49.1811    7.8268  -34.2218 O   0  0  0  0  0  0  0  0  0  0  0  0
  -47.6891    9.5465  -33.9381 N   0  0  0  0  0  0  0  0  0  0  0  0
  -46.4724    9.8490  -33.1938 C   0  0  2  0  0  0  0  0  0  0  0  0
  -45.5398   10.5122  -34.1829 C   0  0  0  0  0  0  0  0  0  0  0  0
  -44.7263    9.4716  -34.9116 C   0  0  0  0  0  0  0  0  0  0  0  0
  -43.5636    8.9332  -34.4338 C   0  0  0  0  0  0  0  0  0  0  0  0
  -42.8358    7.9759  -35.1195 C   0  0  0  0  0  0  0  0  0  0  0  0
  -43.3003    7.5407  -36.3431 C   0  0  0  0  0  0  0  0  0  0  0  0
  -44.4645    8.0594  -36.8540 C   0  0  0  0  0  0  0  0  0  0  0  0
  -45.1775    9.0262  -36.1362 C   0  0  0  0  0  0  0  0  0  0  0  0
  -45.9378    8.6911  -32.4874 C   0  0  0  0  0  0  0  0  0  0  0  0
  -46.4601    7.5535  -32.8150 O   0  0  0  0  0  0  0  0  0  0  0  0
  -44.9453    8.5879  -31.4982 N   0  0  0  0  0  0  0  0  0  0  0  0
  -45.2450    7.8307  -30.2401 C   0  0  0  0  0  0  0  0  0  0  0  0
  1  2  1  0
  2  3  1  0
  4  2  1  1
  4  5  1  0
  5  6  2  0
  5  7  1  0
  7  8  1  0
  8  9  1  6
  9 10  1  0
 10 11  1  0
 11 12  1  0
 12 13  1  0
 13 14  2  0
 13 15  1  0
  8 16  1  0
 16 17  2  0
 16 18  1  0
 18 19  1  0
 19 20  1  0
 20 21  2  0
 20 22  1  0
 22 23  1  0
 23 24  1  6
 24 25  1  0
 25 26  2  0
 25 27  1  0
 23 28  1  0
 28 29  2  0
 28 30  1  0
 30 31  1  0
 31 32  1  6
 32 33  1  0
 33 34  2  0
 34 35  1  0
 35 36  2  0
 36 37  1  0
 37 38  2  0
 31 39  1  0
 39 40  2  0
 39 41  1  0
 41 42  1  0
 41  4  1  0
 38 33  1  0
M  END
$$$$
