
     RDKit          3D

 27 30  0  0  0  0  0  0  0  0999 V2000
  -13.8424   47.7845  -22.3958 C   0  0  0  0  0  0  0  0  0  0  0  0
  -14.4561   46.6054  -21.7313 C   0  0  0  0  0  0  0  0  0  0  0  0
  -13.7129   45.7558  -20.9049 C   0  0  0  0  0  0  0  0  0  0  0  0
  -14.3459   44.6715  -20.3140 C   0  0  0  0  0  0  0  0  0  0  0  0
  -15.6823   44.3864  -20.5018 C   0  0  0  0  0  0  0  0  0  0  0  0
  -16.3303   43.2745  -19.8955 N   0  0  0  0  0  0  0  0  0  0  0  0
  -16.0891   42.8498  -18.6444 N   0  0  0  0  0  0  0  0  0  0  0  0
  -16.8758   41.7880  -18.4158 C   0  0  0  0  0  0  0  0  0  0  0  0
  -17.6270   41.5358  -19.5388 C   0  0  0  0  0  0  0  0  0  0  0  0
  -18.5912   40.5804  -19.8678 C   0  0  0  0  0  0  0  0  0  0  0  0
  -18.9102   39.7156  -19.0104 O   0  0  0  0  0  0  0  0  0  0  0  0
  -19.1796   40.5710  -21.0787 N   0  0  0  0  0  0  0  0  0  0  0  0
  -20.1782   39.5770  -21.4114 C   0  0  0  0  0  0  0  0  0  0  0  0
  -19.5389   38.3567  -22.0047 C   0  0  0  0  0  0  0  0  0  0  0  0
  -18.2945   38.2683  -22.0009 O   0  0  0  0  0  0  0  0  0  0  0  0
  -20.3045   37.3196  -22.5601 N   0  0  0  0  0  0  0  0  0  0  0  0
  -19.8246   36.0602  -23.0417 C   0  0  0  0  0  0  0  0  0  0  0  0
  -19.8702   35.0554  -21.9412 C   0  0  0  0  0  0  0  0  0  0  0  0
  -20.9050   34.2107  -21.6057 C   0  0  0  0  0  0  0  0  0  0  0  0
  -20.5043   33.4503  -20.5175 C   0  0  0  0  0  0  0  0  0  0  0  0
  -19.2277   33.8757  -20.2401 C   0  0  0  0  0  0  0  0  0  0  0  0
  -18.8930   34.8092  -21.0882 O   0  0  0  0  0  0  0  0  0  0  0  0
  -18.8110   41.5107  -21.9645 C   0  0  0  0  0  0  0  0  0  0  0  0
  -17.8723   42.4509  -21.6620 N   0  0  0  0  0  0  0  0  0  0  0  0
  -17.2628   42.4932  -20.4649 C   0  0  0  0  0  0  0  0  0  0  0  0
  -16.3853   45.2634  -21.3360 C   0  0  0  0  0  0  0  0  0  0  0  0
  -15.7929   46.3383  -21.9321 C   0  0  0  0  0  0  0  0  0  0  0  0
  1  2  1  0
  2  3  2  0
  3  4  1  0
  4  5  2  0
  5  6  1  0
  6  7  1  0
  7  8  2  0
  8  9  1  0
  9 10  1  0
 10 11  2  0
 10 12  1  0
 12 13  1  0
 13 14  1  0
 14 15  2  0
 14 16  1  0
 16 17  1  0
 17 18  1  0
 18 19  2  0
 19 20  1  0
 20 21  2  0
 21 22  1  0
 12 23  1  0
 23 24  2  0
 24 25  1  0
  5 26  1  0
 26 27  2  0
 27  2  1  0
 25  6  1  0
 25  9  2  0
 22 18  1  0
M  END
$$$$
