
     RDKit          3D

 27 30  0  0  0  0  0  0  0  0999 V2000
  -30.7496   14.4531  -21.5684 C   0  0  0  0  0  0  0  0  0  0  0  0
  -29.6221   14.0197  -20.6782 C   0  0  2  0  0  0  0  0  0  0  0  0
  -28.3169   14.3993  -21.2567 C   0  0  0  0  0  0  0  0  0  0  0  0
  -28.4054   15.7087  -21.9963 C   0  0  0  0  0  0  0  0  0  0  0  0
  -27.0874   16.0311  -22.6550 C   0  0  0  0  0  0  0  0  0  0  0  0
  -26.7815   15.3598  -23.6684 O   0  0  0  0  0  0  0  0  0  0  0  0
  -26.3043   17.0203  -22.1287 O   0  0  0  0  0  0  0  0  0  0  0  0
  -29.7568   12.5851  -20.2865 C   0  0  1  0  0  0  0  0  0  0  0  0
  -28.6407   12.1157  -19.3747 C   0  0  0  0  0  0  0  0  0  0  0  0
  -29.2882   11.4131  -18.1947 C   0  0  0  0  0  0  0  0  0  0  0  0
  -30.5280   10.9523  -18.8738 C   0  0  1  0  0  0  0  0  0  0  0  0
  -31.5698   10.3143  -18.0867 C   0  0  2  0  0  0  0  0  0  0  0  0
  -31.1072    9.1910  -17.1867 C   0  0  0  0  0  0  0  0  0  0  0  0
  -32.2800    8.6991  -16.4038 C   0  0  0  0  0  0  0  0  0  0  0  0
  -33.6198    8.9528  -17.0650 C   0  0  2  0  0  0  0  0  0  0  0  0
  -34.6731    8.0632  -16.4783 C   0  0  0  0  0  0  0  0  0  0  0  0
  -34.6334    6.6494  -16.9559 C   0  0  2  0  0  0  0  0  0  0  0  0
  -33.7215    5.8607  -16.2509 O   0  0  0  0  0  0  0  0  0  0  0  0
  -34.3860    6.4981  -18.4321 C   0  0  0  0  0  0  0  0  0  0  0  0
  -33.3346    7.4219  -18.9571 C   0  0  0  0  0  0  0  0  0  0  0  0
  -33.5801    8.8548  -18.5495 C   0  0  1  0  0  0  0  0  0  0  0  0
  -34.9718    9.2195  -19.0686 C   0  0  0  0  0  0  0  0  0  0  0  0
  -32.5697    9.7626  -19.1264 C   0  0  1  0  0  0  0  0  0  0  0  0
  -33.2260   11.0459  -19.6468 C   0  0  0  0  0  0  0  0  0  0  0  0
  -32.2002   11.9292  -20.3201 C   0  0  0  0  0  0  0  0  0  0  0  0
  -31.0077   12.2544  -19.4894 C   0  0  2  0  0  0  0  0  0  0  0  0
  -31.2760   13.3002  -18.4388 C   0  0  0  0  0  0  0  0  0  0  0  0
  2  1  1  6
  2  3  1  0
  3  4  1  0
  4  5  1  0
  5  6  2  0
  5  7  1  0
  2  8  1  0
  8  9  1  1
  9 10  1  0
 11 10  1  1
 11 12  1  0
 12 13  1  6
 13 14  1  0
 15 14  1  1
 15 16  1  0
 16 17  1  0
 17 18  1  1
 17 19  1  0
 19 20  1  0
 20 21  1  0
 21 22  1  6
 21 23  1  0
 23 24  1  1
 24 25  1  0
 25 26  1  0
 26 27  1  1
 26  8  1  0
 26 11  1  0
 23 12  1  0
 21 15  1  0
M  END
$$$$
