
     RDKit          3D

 21 23  0  0  0  0  0  0  0  0999 V2000
  -18.2613   43.7567  -21.8060 C   0  0  0  0  0  0  0  0  0  0  0  0
  -17.6635   43.0852  -20.6214 C   0  0  0  0  0  0  0  0  0  0  0  0
  -18.1290   41.9708  -20.1112 C   0  0  0  0  0  0  0  0  0  0  0  0
  -17.6427   41.2523  -18.9245 C   0  0  0  0  0  0  0  0  0  0  0  0
  -16.6885   41.5705  -18.1962 O   0  0  0  0  0  0  0  0  0  0  0  0
  -18.4452   40.1005  -18.7234 N   0  0  0  0  0  0  0  0  0  0  0  0
  -19.4261   40.0601  -19.7431 C   0  0  0  0  0  0  0  0  0  0  0  0
  -20.4303   39.1446  -19.9856 C   0  0  0  0  0  0  0  0  0  0  0  0
  -21.2670   39.3235  -21.0591 C   0  0  0  0  0  0  0  0  0  0  0  0
  -21.1185   40.4015  -21.8952 C   0  0  0  0  0  0  0  0  0  0  0  0
  -22.0083   40.5382  -22.9957 N   0  0  0  0  0  0  0  0  0  0  0  0
  -22.7608   41.7024  -23.2656 C   0  0  0  0  0  0  0  0  0  0  0  0
  -23.8132   41.5988  -24.2402 N   0  0  0  0  0  0  0  0  0  0  0  0
  -22.4844   42.7513  -22.6571 O   0  0  0  0  0  0  0  0  0  0  0  0
  -20.1016   41.3464  -21.6656 C   0  0  0  0  0  0  0  0  0  0  0  0
  -19.2715   41.1630  -20.5959 C   0  0  0  0  0  0  0  0  0  0  0  0
  -16.5404   43.7547  -19.9811 C   0  0  0  0  0  0  0  0  0  0  0  0
  -16.0245   43.4704  -18.7377 C   0  0  0  0  0  0  0  0  0  0  0  0
  -14.9549   44.3110  -18.5260 C   0  0  0  0  0  0  0  0  0  0  0  0
  -14.8158   45.1085  -19.6365 C   0  0  0  0  0  0  0  0  0  0  0  0
  -15.7800   44.7521  -20.4907 N   0  0  0  0  0  0  0  0  0  0  0  0
  1  2  1  0
  2  3  2  0
  3  4  1  0
  4  5  2  0
  4  6  1  0
  6  7  1  0
  7  8  2  0
  8  9  1  0
  9 10  2  0
 10 11  1  0
 11 12  1  0
 12 13  1  0
 12 14  2  0
 10 15  1  0
 15 16  2  0
  2 17  1  0
 17 18  2  0
 18 19  1  0
 19 20  2  0
 20 21  1  0
 16  3  1  0
 21 17  1  0
 16  7  1  0
M  END
$$$$
