
     RDKit          3D

 21 23  0  0  0  0  0  0  0  0999 V2000
  -13.8718   44.2843  -19.6280 C   0  0  0  0  0  0  0  0  0  0  0  0
  -15.2070   44.4063  -20.2571 C   0  0  0  0  0  0  0  0  0  0  0  0
  -15.7150   45.6561  -20.5142 C   0  0  0  0  0  0  0  0  0  0  0  0
  -16.9577   45.7740  -21.0999 C   0  0  0  0  0  0  0  0  0  0  0  0
  -17.5515   47.1029  -21.3986 C   0  0  0  0  0  0  0  0  0  0  0  0
  -17.6598   44.6136  -21.4127 C   0  0  0  0  0  0  0  0  0  0  0  0
  -17.1279   43.3442  -21.1443 C   0  0  0  0  0  0  0  0  0  0  0  0
  -17.8597   42.1720  -21.4764 N   0  0  0  0  0  0  0  0  0  0  0  0
  -17.9109   41.6061  -22.7817 C   0  0  0  0  0  0  0  0  0  0  0  0
  -17.0717   41.6373  -23.6862 O   0  0  0  0  0  0  0  0  0  0  0  0
  -19.2554   40.9236  -22.8545 C   0  0  0  0  0  0  0  0  0  0  0  0
  -19.2897   40.3263  -21.4524 C   0  0  0  0  0  0  0  0  0  0  0  0
  -18.2093   38.8521  -21.4659 S   0  0  0  0  0  0  0  0  0  0  0  0
  -19.2116   37.4631  -20.9979 C   0  0  0  0  0  0  0  0  0  0  0  0
  -19.0007   36.6519  -19.9551 N   0  0  0  0  0  0  0  0  0  0  0  0
  -19.9508   35.7284  -19.9185 N   0  0  0  0  0  0  0  0  0  0  0  0
  -20.7806   35.9388  -20.9380 C   0  0  0  0  0  0  0  0  0  0  0  0
  -20.3149   37.0219  -21.6080 N   0  0  0  0  0  0  0  0  0  0  0  0
  -18.6598   41.3664  -20.6077 C   0  0  0  0  0  0  0  0  0  0  0  0
  -18.8366   41.4593  -19.3940 O   0  0  0  0  0  0  0  0  0  0  0  0
  -15.9089   43.2442  -20.5699 C   0  0  0  0  0  0  0  0  0  0  0  0
  1  2  1  0
  2  3  2  0
  3  4  1  0
  4  5  1  0
  4  6  2  0
  6  7  1  0
  7  8  1  0
  8  9  1  0
  9 10  2  0
  9 11  1  0
 11 12  1  0
 12 13  1  0
 13 14  1  0
 14 15  2  0
 15 16  1  0
 16 17  2  0
 17 18  1  0
 12 19  1  0
 19 20  2  0
  7 21  2  0
 21  2  1  0
 19  8  1  0
 18 14  1  0
M  END
$$$$
