
     RDKit          3D

 28 31  0  0  0  0  0  0  0  0999 V2000
  -18.7191   40.8332  -16.8131 C   0  0  0  0  0  0  0  0  0  0  0  0
  -18.3633   41.1412  -18.1749 N   0  0  0  0  0  0  0  0  0  0  0  0
  -19.2160   40.6464  -19.2198 C   0  0  0  0  0  0  0  0  0  0  0  0
  -20.2977   40.1416  -18.8401 O   0  0  0  0  0  0  0  0  0  0  0  0
  -18.9117   40.6911  -20.6780 C   0  0  1  0  0  0  0  0  0  0  0  0
  -19.9961   40.0873  -21.4227 N   0  0  0  0  0  0  0  0  0  0  0  0
  -21.1361   40.7840  -21.8544 C   0  0  0  0  0  0  0  0  0  0  0  0
  -22.1510   40.8471  -21.1166 O   0  0  0  0  0  0  0  0  0  0  0  0
  -21.1277   41.4285  -23.1594 C   0  0  0  0  0  0  0  0  0  0  0  0
  -20.1255   42.1415  -23.7884 C   0  0  0  0  0  0  0  0  0  0  0  0
  -20.5987   42.5558  -25.0203 C   0  0  0  0  0  0  0  0  0  0  0  0
  -19.8311   43.3502  -26.0074 C   0  0  0  0  0  0  0  0  0  0  0  0
  -20.6896   43.7781  -27.1409 C   0  0  0  0  0  0  0  0  0  0  0  0
  -20.8533   42.9240  -28.2212 C   0  0  0  0  0  0  0  0  0  0  0  0
  -21.6550   43.3510  -29.2546 C   0  0  0  0  0  0  0  0  0  0  0  0
  -22.2859   44.5765  -29.2464 C   0  0  0  0  0  0  0  0  0  0  0  0
  -22.1055   45.3974  -28.1673 C   0  0  0  0  0  0  0  0  0  0  0  0
  -21.3083   45.0026  -27.1122 C   0  0  0  0  0  0  0  0  0  0  0  0
  -21.8068   42.1103  -25.1047 O   0  0  0  0  0  0  0  0  0  0  0  0
  -22.1479   41.4476  -24.0357 N   0  0  0  0  0  0  0  0  0  0  0  0
  -18.6973   42.1306  -21.1098 C   0  0  0  0  0  0  0  0  0  0  0  0
  -17.4243   42.5994  -20.7289 O   0  0  0  0  0  0  0  0  0  0  0  0
  -16.7812   42.5675  -19.4972 C   0  0  0  0  0  0  0  0  0  0  0  0
  -15.6007   43.2748  -19.4518 C   0  0  0  0  0  0  0  0  0  0  0  0
  -14.8124   43.3657  -18.3181 C   0  0  0  0  0  0  0  0  0  0  0  0
  -15.2274   42.7134  -17.1665 C   0  0  0  0  0  0  0  0  0  0  0  0
  -16.4058   41.9966  -17.1809 C   0  0  0  0  0  0  0  0  0  0  0  0
  -17.1703   41.9246  -18.3270 C   0  0  0  0  0  0  0  0  0  0  0  0
  1  2  1  0
  2  3  1  0
  3  4  2  0
  3  5  1  0
  5  6  1  6
  6  7  1  0
  7  8  2  0
  7  9  1  0
  9 10  1  0
 10 11  2  0
 11 12  1  0
 12 13  1  0
 13 14  2  0
 14 15  1  0
 15 16  2  0
 16 17  1  0
 17 18  2  0
 11 19  1  0
 19 20  1  0
  5 21  1  0
 21 22  1  0
 22 23  1  0
 23 24  2  0
 24 25  1  0
 25 26  2  0
 26 27  1  0
 27 28  2  0
 28  2  1  0
 20  9  2  0
 28 23  1  0
 18 13  1  0
M  END
$$$$
