
     RDKit          3D

 29 32  0  0  0  0  0  0  0  0999 V2000
  -21.4955   44.4384  -25.5374 C   0  0  0  0  0  0  0  0  0  0  0  0
  -20.7036   43.3583  -25.1603 O   0  0  0  0  0  0  0  0  0  0  0  0
  -19.7622   43.6947  -24.2077 C   0  0  1  0  0  0  0  0  0  0  0  0
  -20.3882   43.3535  -22.8431 C   0  0  0  0  0  0  0  0  0  0  0  0
  -21.0701   42.0330  -22.9991 C   0  0  0  0  0  0  0  0  0  0  0  0
  -20.3310   40.9495  -23.7055 C   0  0  2  0  0  0  0  0  0  0  0  0
  -20.1614   39.8645  -22.7629 N   0  0  0  0  0  0  0  0  0  0  0  0
  -20.7997   38.5975  -22.9413 C   0  0  0  0  0  0  0  0  0  0  0  0
  -21.7859   38.5087  -23.6952 O   0  0  0  0  0  0  0  0  0  0  0  0
  -20.2621   37.4115  -22.2141 C   0  0  0  0  0  0  0  0  0  0  0  0
  -19.7758   37.8083  -20.8939 N   0  0  0  0  0  0  0  0  0  0  0  0
  -19.1387   39.0706  -20.7114 C   0  0  0  0  0  0  0  0  0  0  0  0
  -18.3501   39.2965  -19.6513 N   0  0  0  0  0  0  0  0  0  0  0  0
  -17.7298   40.4997  -19.4573 C   0  0  0  0  0  0  0  0  0  0  0  0
  -17.9009   41.5258  -20.3582 C   0  0  0  0  0  0  0  0  0  0  0  0
  -17.2616   42.8278  -20.1970 C   0  0  0  0  0  0  0  0  0  0  0  0
  -17.4494   43.7884  -21.1889 C   0  0  0  0  0  0  0  0  0  0  0  0
  -16.8703   45.0462  -21.0978 C   0  0  0  0  0  0  0  0  0  0  0  0
  -16.0909   45.3579  -20.0041 C   0  0  0  0  0  0  0  0  0  0  0  0
  -15.4456   46.6969  -19.8586 C   0  0  0  0  0  0  0  0  0  0  0  0
  -13.9894   46.5881  -19.5443 C   0  0  0  0  0  0  0  0  0  0  0  0
  -16.1235   47.4799  -18.7708 C   0  0  0  0  0  0  0  0  0  0  0  0
  -15.5818   47.4386  -21.0481 O   0  0  0  0  0  0  0  0  0  0  0  0
  -15.9171   44.4244  -19.0549 N   0  0  0  0  0  0  0  0  0  0  0  0
  -16.4812   43.1790  -19.1293 C   0  0  0  0  0  0  0  0  0  0  0  0
  -18.7016   41.2692  -21.4175 N   0  0  0  0  0  0  0  0  0  0  0  0
  -19.3239   40.0997  -21.6355 C   0  0  0  0  0  0  0  0  0  0  0  0
  -19.1437   41.3606  -24.4330 C   0  0  0  0  0  0  0  0  0  0  0  0
  -18.5833   42.7382  -24.2667 C   0  0  0  0  0  0  0  0  0  0  0  0
  1  2  1  0
  3  2  1  6
  3  4  1  0
  4  5  1  0
  5  6  1  0
  6  7  1  1
  7  8  1  0
  8  9  2  0
  8 10  1  0
 10 11  1  0
 11 12  1  0
 12 13  2  0
 13 14  1  0
 14 15  2  0
 15 16  1  0
 16 17  2  0
 17 18  1  0
 18 19  2  0
 19 20  1  0
 20 21  1  0
 20 22  1  0
 20 23  1  0
 19 24  1  0
 24 25  2  0
 15 26  1  0
 26 27  2  0
  6 28  1  0
 28 29  1  0
 29  3  1  0
 27  7  1  0
 27 12  1  0
 25 16  1  0
M  END
$$$$
