
     RDKit          3D

 34 37  0  0  0  0  0  0  0  0999 V2000
  -12.1139   -3.1481  -34.7699 C   0  0  0  0  0  0  0  0  0  0  0  0
  -12.9521   -1.8958  -35.0484 C   0  0  0  0  0  0  0  0  0  0  0  0
  -12.1141   -0.6460  -34.7813 C   0  0  0  0  0  0  0  0  0  0  0  0
  -14.1392   -1.9210  -34.1176 C   0  0  0  0  0  0  0  0  0  0  0  0
  -15.2236   -1.0791  -34.6438 C   0  0  0  0  0  0  0  0  0  0  0  0
  -15.6662   -1.3443  -35.8801 C   0  0  0  0  0  0  0  0  0  0  0  0
  -16.7302   -0.5969  -36.5370 C   0  0  0  0  0  0  0  0  0  0  0  0
  -16.5117    0.0918  -37.6841 N   0  0  0  0  0  0  0  0  0  0  0  0
  -17.4129    0.8977  -38.2704 C   0  0  0  0  0  0  0  0  0  0  0  0
  -17.1546    1.6766  -39.4625 C   0  0  0  0  0  0  0  0  0  0  0  0
  -15.7543    2.1581  -39.7079 C   0  0  0  0  0  0  0  0  0  0  0  0
  -15.8344    3.2454  -40.7619 C   0  0  0  0  0  0  0  0  0  0  0  0
  -16.2038    4.5675  -40.1051 C   0  0  0  0  0  0  0  0  0  0  0  0
  -14.4245    3.4616  -41.3640 C   0  0  0  0  0  0  0  0  0  0  0  0
  -16.6301    2.9468  -41.7902 O   0  0  0  0  0  0  0  0  0  0  0  0
  -17.5354    1.9724  -41.9046 C   0  0  0  0  0  0  0  0  0  0  0  0
  -18.8996    2.6618  -42.1381 C   0  0  0  0  0  0  0  0  0  0  0  0
  -17.2648    1.1986  -43.1759 C   0  0  0  0  0  0  0  0  0  0  0  0
  -17.6828    1.0223  -40.7449 C   0  0  0  0  0  0  0  0  0  0  0  0
  -18.6422    1.0319  -37.6536 C   0  0  0  0  0  0  0  0  0  0  0  0
  -18.9195    0.3616  -36.4897 C   0  0  0  0  0  0  0  0  0  0  0  0
  -17.9499   -0.4485  -35.9450 C   0  0  0  0  0  0  0  0  0  0  0  0
  -18.2673   -0.9110  -34.6124 N   0  0  0  0  0  0  0  0  0  0  0  0
  -18.6484    0.0825  -33.6597 C   0  0  0  0  0  0  0  0  0  0  0  0
  -18.7495    1.2536  -34.1822 O   0  0  0  0  0  0  0  0  0  0  0  0
  -18.9180   -0.0773  -32.2563 C   0  0  0  0  0  0  0  0  0  0  0  0
  -19.1641    0.7719  -31.2665 N   0  0  0  0  0  0  0  0  0  0  0  0
  -19.3326    0.0982  -30.0835 C   0  0  0  0  0  0  0  0  0  0  0  0
  -19.1827   -1.1926  -30.3526 C   0  0  0  0  0  0  0  0  0  0  0  0
  -19.2806   -2.3686  -29.4669 C   0  0  0  0  0  0  0  0  0  0  0  0
  -19.3739   -3.2641  -28.7849 N   0  0  0  0  0  0  0  0  0  0  0  0
  -18.9264   -1.3037  -31.6923 N   0  0  0  0  0  0  0  0  0  0  0  0
  -14.8558   -2.3983  -36.5869 C   0  0  0  0  0  0  0  0  0  0  0  0
  -13.3963   -1.8912  -36.4836 C   0  0  0  0  0  0  0  0  0  0  0  0
  1  2  1  0
  2  3  1  0
  2  4  1  0
  4  5  1  0
  5  6  2  0
  6  7  1  0
  7  8  2  0
  8  9  1  0
  9 10  1  0
 10 11  1  0
 11 12  1  0
 12 13  1  0
 12 14  1  0
 12 15  1  0
 15 16  1  0
 16 17  1  0
 16 18  1  0
 16 19  1  0
  9 20  2  0
 20 21  1  0
 21 22  2  0
 22 23  1  0
 23 24  1  0
 24 25  2  0
 24 26  1  0
 26 27  2  0
 27 28  1  0
 28 29  2  0
 29 30  1  0
 30 31  3  0
 29 32  1  0
  6 33  1  0
 33 34  1  0
 34  2  1  0
 22  7  1  0
 32 26  1  0
 19 10  1  0
M  END
$$$$
