
     RDKit          3D

 29 32  0  0  0  0  0  0  0  0999 V2000
  -23.3072    0.5123  -28.5545 N   0  0  0  0  0  0  0  0  0  0  0  0
  -22.6347    0.5578  -29.8027 C   0  0  0  0  0  0  0  0  0  0  0  0
  -21.2809    0.5549  -29.8513 N   0  0  0  0  0  0  0  0  0  0  0  0
  -20.5993    0.5959  -30.9923 C   0  0  0  0  0  0  0  0  0  0  0  0
  -19.1722    0.5967  -31.0495 N   0  0  0  0  0  0  0  0  0  0  0  0
  -21.2672    0.6435  -32.1926 C   0  0  0  0  0  0  0  0  0  0  0  0
  -20.6061    0.6875  -33.4161 C   0  0  0  0  0  0  0  0  0  0  0  0
  -19.2312    0.6808  -33.3882 O   0  0  0  0  0  0  0  0  0  0  0  0
  -18.4375   -0.2716  -34.0667 C   0  0  0  0  0  0  0  0  0  0  0  0
  -16.9886   -0.1383  -33.6304 C   0  0  0  0  0  0  0  0  0  0  0  0
  -16.0077   -0.2202  -34.7407 C   0  0  0  0  0  0  0  0  0  0  0  0
  -14.7577   -0.9824  -34.5037 C   0  0  0  0  0  0  0  0  0  0  0  0
  -14.3912   -1.3133  -33.1951 N   0  0  0  0  0  0  0  0  0  0  0  0
  -13.0280   -1.4223  -32.8427 C   0  0  0  0  0  0  0  0  0  0  0  0
  -12.1021   -0.4704  -33.4535 C   0  0  0  0  0  0  0  0  0  0  0  0
  -11.3433   -0.8506  -34.5608 C   0  0  0  0  0  0  0  0  0  0  0  0
  -11.5730   -2.4708  -35.1588 Cl  0  0  0  0  0  0  0  0  0  0  0  0
  -10.4417    0.0327  -35.1590 C   0  0  0  0  0  0  0  0  0  0  0  0
  -10.2772    1.3101  -34.6683 C   0  0  0  0  0  0  0  0  0  0  0  0
  -11.0331    1.6688  -33.5755 C   0  0  0  0  0  0  0  0  0  0  0  0
  -11.9425    0.7988  -32.9600 C   0  0  0  0  0  0  0  0  0  0  0  0
  -12.8486    1.3405  -31.5510 Cl  0  0  0  0  0  0  0  0  0  0  0  0
  -15.2528   -1.0098  -32.1175 C   0  0  0  0  0  0  0  0  0  0  0  0
  -16.6833   -1.2025  -32.6045 C   0  0  0  0  0  0  0  0  0  0  0  0
  -21.3555    0.7336  -34.5618 C   0  0  0  0  0  0  0  0  0  0  0  0
  -22.7493    0.7363  -34.5028 C   0  0  0  0  0  0  0  0  0  0  0  0
  -23.4129    0.6928  -33.2996 C   0  0  0  0  0  0  0  0  0  0  0  0
  -22.6543    0.6463  -32.1408 C   0  0  0  0  0  0  0  0  0  0  0  0
  -23.2803    0.6043  -30.9742 N   0  0  0  0  0  0  0  0  0  0  0  0
  1  2  1  0
  2  3  2  0
  3  4  1  0
  4  5  1  0
  4  6  2  0
  6  7  1  0
  7  8  1  0
  8  9  1  0
  9 10  1  0
 10 11  1  0
 11 12  1  0
 12 13  1  0
 13 14  1  0
 14 15  1  0
 15 16  2  0
 16 17  1  0
 16 18  1  0
 18 19  2  0
 19 20  1  0
 20 21  2  0
 21 22  1  0
 13 23  1  0
 23 24  1  0
  7 25  2  0
 25 26  1  0
 26 27  2  0
 27 28  1  0
 28 29  2  0
 29  2  1  0
 28  6  1  0
 24 10  1  0
 21 15  1  0
M  END
$$$$
