
     RDKit          3D

 27 31  0  0  0  0  0  0  0  0999 V2000
  -28.5833   24.8534  -38.0541 O   0  0  0  0  0  0  0  0  0  0  0  0
  -27.4450   24.6682  -37.5884 C   0  0  0  0  0  0  0  0  0  0  0  0
  -26.6484   23.5652  -37.8729 C   0  0  0  0  0  0  0  0  0  0  0  0
  -25.4009   23.4068  -37.3353 C   0  0  0  0  0  0  0  0  0  0  0  0
  -24.5832   22.2405  -37.6548 C   0  0  0  0  0  0  0  0  0  0  0  0
  -24.9898   20.9391  -37.5176 C   0  0  0  0  0  0  0  0  0  0  0  0
  -24.1908   19.8637  -37.8402 C   0  0  0  0  0  0  0  0  0  0  0  0
  -22.9198   20.0665  -38.3257 C   0  0  0  0  0  0  0  0  0  0  0  0
  -22.4690   21.3689  -38.4815 C   0  0  0  0  0  0  0  0  0  0  0  0
  -23.2844   22.4244  -38.1528 C   0  0  0  0  0  0  0  0  0  0  0  0
  -22.6924   24.1147  -38.3879 S   0  0  0  0  0  0  0  0  0  0  0  0
  -21.8756   24.1388  -40.0002 C   0  0  0  0  0  0  0  0  0  0  0  0
  -22.0259   25.1186  -40.9215 C   0  0  0  0  0  0  0  0  0  0  0  0
  -21.3812   25.0835  -42.1517 C   0  0  0  0  0  0  0  0  0  0  0  0
  -20.5677   24.0227  -42.4408 C   0  0  0  0  0  0  0  0  0  0  0  0
  -20.3938   22.9990  -41.5134 C   0  0  0  0  0  0  0  0  0  0  0  0
  -21.0447   23.0666  -40.3104 C   0  0  0  0  0  0  0  0  0  0  0  0
  -20.8363   21.7453  -39.1238 S   0  0  0  0  0  0  0  0  0  0  0  0
  -24.9637   24.3438  -36.5239 O   0  0  0  0  0  0  0  0  0  0  0  0
  -25.6558   25.4187  -36.2038 C   0  0  0  0  0  0  0  0  0  0  0  0
  -25.1520   26.4040  -35.3256 N   0  0  0  0  0  0  0  0  0  0  0  0
  -23.7850   26.4106  -34.8509 C   0  0  0  0  0  0  0  0  0  0  0  0
  -23.1957   27.8116  -34.9050 C   0  0  0  0  0  0  0  0  0  0  0  0
  -24.0409   28.7510  -34.3566 O   0  0  0  0  0  0  0  0  0  0  0  0
  -25.2308   28.8032  -35.0393 C   0  0  0  0  0  0  0  0  0  0  0  0
  -26.0067   27.4995  -34.8670 C   0  0  0  0  0  0  0  0  0  0  0  0
  -26.9327   25.6166  -36.7324 C   0  0  0  0  0  0  0  0  0  0  0  0
  1  2  2  0
  2  3  1  0
  3  4  2  0
  4  5  1  0
  5  6  2  0
  6  7  1  0
  7  8  2  0
  8  9  1  0
  9 10  2  0
 10 11  1  0
 11 12  1  0
 12 13  2  0
 13 14  1  0
 14 15  2  0
 15 16  1  0
 16 17  2  0
 17 18  1  0
  4 19  1  0
 19 20  1  0
 20 21  1  0
 21 22  1  0
 22 23  1  0
 23 24  1  0
 24 25  1  0
 25 26  1  0
 20 27  2  0
 27  2  1  0
 10  5  1  0
 17 12  1  0
 26 21  1  0
 18  9  1  0
M  END
$$$$
