
     RDKit          3D

 29 32  0  0  0  0  0  0  0  0999 V2000
    4.4660   18.3683  -21.7892 O   0  0  0  0  0  0  0  0  0  0  0  0
    3.3293   18.5244  -21.3478 C   0  0  0  0  0  0  0  0  0  0  0  0
    2.2289   18.6712  -22.1955 N   0  0  0  0  0  0  0  0  0  0  0  0
    1.3416   17.6667  -22.5880 C   0  0  0  0  0  0  0  0  0  0  0  0
    1.8340   16.3710  -22.8338 C   0  0  0  0  0  0  0  0  0  0  0  0
    0.9978   15.3572  -23.2204 C   0  0  0  0  0  0  0  0  0  0  0  0
   -0.3564   15.5700  -23.3827 C   0  0  0  0  0  0  0  0  0  0  0  0
   -1.3829   14.7659  -23.7471 N   0  0  0  0  0  0  0  0  0  0  0  0
   -2.4789   15.5282  -23.7308 C   0  0  0  0  0  0  0  0  0  0  0  0
   -3.6353   15.1255  -24.0155 O   0  0  0  0  0  0  0  0  0  0  0  0
   -2.1589   16.7576  -23.3724 O   0  0  0  0  0  0  0  0  0  0  0  0
   -0.8693   16.8259  -23.1501 C   0  0  0  0  0  0  0  0  0  0  0  0
   -0.0000   17.8635  -22.7523 C   0  0  0  0  0  0  0  0  0  0  0  0
    3.1265   18.5569  -19.8665 C   0  0  0  0  0  0  0  0  0  0  0  0
    2.5361   17.6208  -19.3209 O   0  0  0  0  0  0  0  0  0  0  0  0
    3.6082   19.6465  -19.1217 N   0  0  0  0  0  0  0  0  0  0  0  0
    3.3838   19.7671  -17.6760 C   0  0  0  0  0  0  0  0  0  0  0  0
    4.0957   21.0379  -17.2279 C   0  0  0  0  0  0  0  0  0  0  0  0
    3.6441   22.2417  -18.0132 C   0  0  0  0  0  0  0  0  0  0  0  0
    4.5584   23.4003  -17.6940 C   0  0  0  0  0  0  0  0  0  0  0  0
    3.9406   24.6382  -18.1807 C   0  0  0  0  0  0  0  0  0  0  0  0
    3.5265   24.8278  -19.4762 C   0  0  0  0  0  0  0  0  0  0  0  0
    2.9451   25.9891  -19.9395 C   0  0  0  0  0  0  0  0  0  0  0  0
    2.7712   27.0209  -19.0411 C   0  0  0  0  0  0  0  0  0  0  0  0
    2.2083   28.1916  -19.4190 F   0  0  0  0  0  0  0  0  0  0  0  0
    3.1794   26.8606  -17.7239 C   0  0  0  0  0  0  0  0  0  0  0  0
    3.7583   25.6818  -17.2970 C   0  0  0  0  0  0  0  0  0  0  0  0
    3.6544   22.0048  -19.4911 C   0  0  0  0  0  0  0  0  0  0  0  0
    4.3489   20.6864  -19.7948 C   0  0  0  0  0  0  0  0  0  0  0  0
  1  2  2  0
  2  3  1  0
  3  4  1  0
  4  5  2  0
  5  6  1  0
  6  7  2  0
  7  8  1  0
  8  9  1  0
  9 10  2  0
  9 11  1  0
 11 12  1  0
 12 13  2  0
  2 14  1  0
 14 15  2  0
 14 16  1  0
 16 17  1  0
 17 18  1  0
 18 19  1  0
 19 20  1  0
 20 21  1  0
 21 22  2  0
 22 23  1  0
 23 24  2  0
 24 25  1  0
 24 26  1  0
 26 27  2  0
 19 28  1  0
 28 29  1  0
 13  4  1  0
 29 16  1  0
 12  7  1  0
 27 21  1  0
M  END
$$$$
