
     RDKit          3D

 10  9  0  0  0  0  0  0  0  0999 V2000
  -18.6889   37.0873  -22.4567 Cl  0  0  0  0  0  0  0  0  0  0  0  0
  -18.7967   34.4116  -23.2125 N   0  0  0  0  0  0  0  0  0  0  0  0
  -18.2410   35.7050  -22.8571 C   0  0  0  0  0  0  0  0  0  0  0  0
  -19.3070   36.6428  -22.3977 C   0  0  0  0  0  0  0  0  0  0  0  0
  -18.8636   37.9732  -22.0145 C   0  0  0  0  0  0  0  0  0  0  0  0
  -18.5056   38.1722  -20.6824 C   0  0  0  0  0  0  0  0  0  0  0  0
  -18.0720   39.3579  -20.1730 C   0  0  0  0  0  0  0  0  0  0  0  0
  -17.9847   40.4333  -21.0485 C   0  0  0  0  0  0  0  0  0  0  0  0
  -18.3292   40.2719  -22.3661 C   0  0  0  0  0  0  0  0  0  0  0  0
  -18.7627   39.0564  -22.8401 C   0  0  0  0  0  0  0  0  0  0  0  0
  2  3  1  0
  3  4  1  0
  4  5  1  0
  5  6  2  0
  6  7  1  0
  7  8  2  0
  8  9  1  0
  9 10  2  0
 10  5  1  0
M  END
$$$$
