
     RDKit          3D

 19 20  0  0  0  0  0  0  0  0999 V2000
  -17.4074   45.0517  -20.9623 C   0  0  0  0  0  0  0  0  0  0  0  0
  -18.6114   44.3308  -21.1302 O   0  0  0  0  0  0  0  0  0  0  0  0
  -18.6324   43.0721  -21.7165 C   0  0  0  0  0  0  0  0  0  0  0  0
  -17.5341   42.2503  -21.6011 C   0  0  0  0  0  0  0  0  0  0  0  0
  -17.4928   40.9880  -22.1612 C   0  0  0  0  0  0  0  0  0  0  0  0
  -18.5965   40.5043  -22.8767 C   0  0  0  0  0  0  0  0  0  0  0  0
  -18.5087   39.1461  -23.4463 C   0  0  0  0  0  0  0  0  0  0  0  0
  -19.2598   38.1330  -22.6861 C   0  0  0  0  0  0  0  0  0  0  0  0
  -20.5858   37.8535  -23.0207 C   0  0  0  0  0  0  0  0  0  0  0  0
  -21.3129   36.9536  -22.3582 N   0  0  0  0  0  0  0  0  0  0  0  0
  -20.8103   36.2711  -21.3383 C   0  0  0  0  0  0  0  0  0  0  0  0
  -21.5970   35.3227  -20.6461 N   0  0  0  0  0  0  0  0  0  0  0  0
  -19.5151   36.5238  -20.9888 N   0  0  0  0  0  0  0  0  0  0  0  0
  -18.7491   37.4245  -21.6333 C   0  0  0  0  0  0  0  0  0  0  0  0
  -17.4013   37.6026  -21.1987 N   0  0  0  0  0  0  0  0  0  0  0  0
  -19.6728   41.3175  -22.9854 C   0  0  0  0  0  0  0  0  0  0  0  0
  -19.7168   42.5996  -22.4180 C   0  0  0  0  0  0  0  0  0  0  0  0
  -20.8116   43.4359  -22.5256 O   0  0  0  0  0  0  0  0  0  0  0  0
  -22.1265   43.0632  -22.7911 C   0  0  0  0  0  0  0  0  0  0  0  0
  1  2  1  0
  2  3  1  0
  3  4  2  0
  4  5  1  0
  5  6  2  0
  6  7  1  0
  7  8  1  0
  8  9  2  0
  9 10  1  0
 10 11  2  0
 11 12  1  0
 11 13  1  0
 13 14  2  0
 14 15  1  0
  6 16  1  0
 16 17  2  0
 17 18  1  0
 18 19  1  0
 17  3  1  0
 14  8  1  0
M  END
$$$$
