
     RDKit          3D

 20 22  0  0  0  0  0  0  0  0999 V2000
  -13.1699   45.2860  -19.7472 C   0  0  0  0  0  0  0  0  0  0  0  0
  -14.5403   44.6878  -19.8679 C   0  0  0  0  0  0  0  0  0  0  0  0
  -14.8153   43.7566  -20.8226 C   0  0  0  0  0  0  0  0  0  0  0  0
  -16.0829   43.2193  -20.9159 C   0  0  0  0  0  0  0  0  0  0  0  0
  -17.1071   43.5915  -20.0664 C   0  0  0  0  0  0  0  0  0  0  0  0
  -18.6583   42.8307  -20.2990 S   0  0  0  0  0  6  0  0  0  0  0  0
  -19.1692   43.2564  -21.6601 O   0  0  0  0  0  0  0  0  0  0  0  0
  -19.6087   43.4145  -19.2929 O   0  0  0  0  0  0  0  0  0  0  0  0
  -18.5873   41.1307  -20.2054 N   0  0  0  0  0  0  0  0  0  0  0  0
  -18.5772   40.4243  -19.0619 C   0  0  0  0  0  0  0  0  0  0  0  0
  -18.6198   40.8654  -17.7142 N   0  0  0  0  0  0  0  0  0  0  0  0
  -18.5150   39.1046  -19.4006 N   0  0  0  0  0  0  0  0  0  0  0  0
  -18.4867   38.9939  -20.7411 C   0  0  0  0  0  0  0  0  0  0  0  0
  -18.4254   37.9130  -21.6037 C   0  0  0  0  0  0  0  0  0  0  0  0
  -18.4075   38.0573  -22.9711 C   0  0  0  0  0  0  0  0  0  0  0  0
  -18.4534   39.3386  -23.4721 C   0  0  0  0  0  0  0  0  0  0  0  0
  -18.5148   40.4316  -22.6328 C   0  0  0  0  0  0  0  0  0  0  0  0
  -18.5328   40.2827  -21.2477 C   0  0  0  0  0  0  0  0  0  0  0  0
  -16.8362   44.5222  -19.1107 C   0  0  0  0  0  0  0  0  0  0  0  0
  -15.5521   45.0713  -19.0107 C   0  0  0  0  0  0  0  0  0  0  0  0
  1  2  1  0
  2  3  2  0
  3  4  1  0
  4  5  2  0
  5  6  1  0
  6  7  2  0
  6  8  2  0
  6  9  1  0
  9 10  1  0
 10 11  1  0
 10 12  2  0
 12 13  1  0
 13 14  2  0
 14 15  1  0
 15 16  2  0
 16 17  1  0
 17 18  2  0
  5 19  1  0
 19 20  2  0
 20  2  1  0
 18  9  1  0
 18 13  1  0
M  END
$$$$
