
     RDKit          3D

 29 33  0  0  0  0  0  0  0  0999 V2000
  -21.7273   36.4506  -27.6968 O   0  0  0  0  0  0  0  0  0  0  0  0
  -21.5314   36.9413  -26.5296 C   0  0  0  0  0  0  0  0  0  0  0  0
  -20.3464   37.2391  -25.9206 O   0  0  0  0  0  0  0  0  0  0  0  0
  -20.5940   37.7613  -24.6357 C   0  0  0  0  0  0  0  0  0  0  0  0
  -22.0912   37.7726  -24.4695 C   0  0  0  0  0  0  0  0  0  0  0  0
  -22.9092   38.1640  -23.4482 C   0  0  0  0  0  0  0  0  0  0  0  0
  -24.2772   38.0539  -23.5872 C   0  0  0  0  0  0  0  0  0  0  0  0
  -24.8341   37.5578  -24.7337 C   0  0  0  0  0  0  0  0  0  0  0  0
  -24.0065   37.1636  -25.7628 C   0  0  0  0  0  0  0  0  0  0  0  0
  -22.6137   37.2731  -25.6277 C   0  0  0  0  0  0  0  0  0  0  0  0
  -20.0457   36.9033  -23.5718 C   0  0  0  0  0  0  0  0  0  0  0  0
  -20.4953   35.5738  -23.5016 C   0  0  0  0  0  0  0  0  0  0  0  0
  -20.0065   34.7424  -22.5224 C   0  0  0  0  0  0  0  0  0  0  0  0
  -20.5870   32.9207  -22.3830 Br  0  0  0  0  0  0  0  0  0  0  0  0
  -19.0757   35.1695  -21.5896 C   0  0  0  0  0  0  0  0  0  0  0  0
  -18.5827   34.3181  -20.5958 O   0  0  0  0  0  0  0  0  0  0  0  0
  -18.6645   36.4612  -21.6889 C   0  0  0  0  0  0  0  0  0  0  0  0
  -17.3723   37.0893  -20.4103 Br  0  0  0  0  0  0  0  0  0  0  0  0
  -19.1314   37.3255  -22.6568 C   0  0  0  0  0  0  0  0  0  0  0  0
  -18.6798   38.6478  -22.7212 O   0  0  0  0  0  0  0  0  0  0  0  0
  -19.1463   39.5228  -23.6936 C   0  0  0  0  0  0  0  0  0  0  0  0
  -20.0631   39.1342  -24.6272 C   0  0  0  0  0  0  0  0  0  0  0  0
  -20.4962   40.0623  -25.5837 C   0  0  0  0  0  0  0  0  0  0  0  0
  -20.0466   41.3557  -25.6372 C   0  0  0  0  0  0  0  0  0  0  0  0
  -20.6756   42.5783  -26.9681 Br  0  0  0  0  0  0  0  0  0  0  0  0
  -19.1202   41.7468  -24.6931 C   0  0  0  0  0  0  0  0  0  0  0  0
  -18.6602   43.0550  -24.7407 O   0  0  0  0  0  0  0  0  0  0  0  0
  -18.6881   40.8410  -23.7481 C   0  0  0  0  0  0  0  0  0  0  0  0
  -17.4108   41.3621  -22.4380 Br  0  0  0  0  0  0  0  0  0  0  0  0
  1  2  2  0
  2  3  1  0
  3  4  1  0
  4  5  1  0
  5  6  2  0
  6  7  1  0
  7  8  2  0
  8  9  1  0
  9 10  2  0
  4 11  1  0
 11 12  2  0
 12 13  1  0
 13 14  1  0
 13 15  2  0
 15 16  1  0
 15 17  1  0
 17 18  1  0
 17 19  2  0
 19 20  1  0
 20 21  1  0
 21 22  2  0
 22 23  1  0
 23 24  2  0
 24 25  1  0
 24 26  1  0
 26 27  1  0
 26 28  2  0
 28 29  1  0
 10  2  1  0
 19 11  1  0
 28 21  1  0
 22  4  1  0
 10  5  1  0
M  END
$$$$
