
     RDKit          3D

 14 14  0  0  0  0  0  0  0  0999 V2000
  -12.4572   13.1218  -30.7146 C   0  0  0  0  0  0  0  0  0  0  0  0
  -13.3566   12.3760  -29.7256 C   0  0  0  0  0  0  0  0  0  0  0  0
  -14.6827   12.3978  -30.2807 N   0  0  0  0  0  0  0  0  0  0  0  0
  -15.6333   13.3237  -29.7504 C   0  0  0  0  0  0  0  0  0  0  0  0
  -15.3744   14.0212  -28.6301 N   0  0  0  0  0  0  0  0  0  0  0  0
  -16.2564   14.8972  -28.1154 C   0  0  0  0  0  0  0  0  0  0  0  0
  -15.9448   15.8179  -26.6567 Cl  0  0  0  0  0  0  0  0  0  0  0  0
  -17.4190   15.0602  -28.7578 N   0  0  0  0  0  0  0  0  0  0  0  0
  -17.7432   14.3991  -29.8778 C   0  0  0  0  0  0  0  0  0  0  0  0
  -18.9880   14.6189  -30.5044 N   0  0  0  0  0  0  0  0  0  0  0  0
  -19.8959   15.6029  -30.0003 C   0  0  0  0  0  0  0  0  0  0  0  0
  -21.3129   15.0794  -29.8178 C   0  0  0  0  0  0  0  0  0  0  0  0
  -20.0235   16.7710  -30.9839 C   0  0  0  0  0  0  0  0  0  0  0  0
  -16.8251   13.5345  -30.3507 N   0  0  0  0  0  0  0  0  0  0  0  0
  1  2  1  0
  2  3  1  0
  3  4  1  0
  4  5  2  0
  5  6  1  0
  6  7  1  0
  6  8  2  0
  8  9  1  0
  9 10  1  0
 10 11  1  0
 11 12  1  0
 11 13  1  0
  9 14  2  0
 14  4  1  0
M  END
$$$$
