
     RDKit          3D

 16 15  0  0  0  0  0  0  0  0999 V2000
  -20.2352   32.2987  -19.7845 C   0  0  0  0  0  0  0  0  0  0  0  0
  -20.5805   33.3970  -20.7863 C   0  0  0  0  0  0  0  0  0  0  0  0
  -19.3951   33.6707  -21.6904 C   0  0  0  0  0  0  0  0  0  0  0  0
  -19.6627   34.7434  -22.6919 C   0  0  0  0  0  0  0  0  0  0  0  0
  -19.9931   36.0125  -22.0880 N   0  0  0  0  0  0  0  0  0  0  0  0
  -18.9140   36.6049  -21.4048 C   0  0  0  0  0  0  0  0  0  0  0  0
  -18.9087   38.0467  -21.1478 C   0  0  2  0  0  0  0  0  0  0  0  0
  -18.9631   38.3319  -19.7744 O   0  0  0  0  0  0  0  0  0  0  0  0
  -20.0365   38.8258  -21.7989 C   0  0  1  0  0  0  0  0  0  0  0  0
  -19.6562   40.1553  -21.9047 O   0  0  0  0  0  0  0  0  0  0  0  0
  -20.2264   38.1747  -23.1547 C   0  0  2  0  0  0  0  0  0  0  0  0
  -20.9803   38.9201  -24.0205 O   0  0  0  0  0  0  0  0  0  0  0  0
  -20.8676   36.8274  -22.8154 C   0  0  1  0  0  0  0  0  0  0  0  0
  -21.4121   36.2734  -24.0933 C   0  0  0  0  0  0  0  0  0  0  0  0
  -20.4589   35.9602  -25.0336 O   0  0  0  0  0  0  0  0  0  0  0  0
  -19.9539   35.4393  -21.8335 Cl  0  0  0  0  0  0  0  0  0  0  0  0
  1  2  1  0
  2  3  1  0
  3  4  1  0
  4  5  1  0
  5  6  1  0
  6  7  1  0
  7  8  1  1
  7  9  1  0
  9 10  1  6
  9 11  1  0
 11 12  1  6
 11 13  1  0
 13 14  1  6
 14 15  1  0
 13  5  1  0
M  END
$$$$
