
     RDKit          3D

 24 27  0  0  0  0  0  0  0  0999 V2000
  -32.8728   12.1728  -18.4670 C   0  0  0  0  0  0  0  0  0  0  0  0
  -31.4209   11.1132  -18.7200 S   0  0  0  0  0  0  0  0  0  0  0  0
  -30.1099   12.0566  -19.4853 C   0  0  0  0  0  0  0  0  0  0  0  0
  -28.8989   12.2761  -18.8372 C   0  0  0  0  0  0  0  0  0  0  0  0
  -27.8896   12.9924  -19.4069 C   0  0  0  0  0  0  0  0  0  0  0  0
  -28.0875   13.5172  -20.6794 C   0  0  0  0  0  0  0  0  0  0  0  0
  -29.2670   13.3307  -21.3665 C   0  0  0  0  0  0  0  0  0  0  0  0
  -30.2410   12.5958  -20.7263 C   0  0  0  0  0  0  0  0  0  0  0  0
  -29.6805   13.8143  -22.7288 C   0  0  0  0  0  0  0  0  0  0  0  0
  -29.1701   13.0219  -23.7720 N   0  0  0  0  0  0  0  0  0  0  0  0
  -29.3610   11.6122  -23.6917 C   0  0  0  0  0  0  0  0  0  0  0  0
  -29.8128   11.0218  -25.0279 C   0  0  0  0  0  0  0  0  0  0  0  0
  -28.7616   11.2623  -25.9660 N   0  0  0  0  0  0  0  0  0  0  0  0
  -29.0008   10.7706  -27.2870 C   0  0  0  0  0  0  0  0  0  0  0  0
  -28.1982   12.5695  -25.8948 C   0  0  0  0  0  0  0  0  0  0  0  0
  -29.0491   13.5526  -25.0721 C   0  0  0  0  0  0  0  0  0  0  0  0
  -29.6191   15.2871  -22.8474 C   0  0  0  0  0  0  0  0  0  0  0  0
  -28.3625   15.9738  -22.8175 C   0  0  0  0  0  0  0  0  0  0  0  0
  -28.4606   17.1486  -23.5788 C   0  0  0  0  0  0  0  0  0  0  0  0
  -27.4071   18.0135  -23.7261 C   0  0  0  0  0  0  0  0  0  0  0  0
  -26.2016   17.7421  -23.1162 C   0  0  0  0  0  0  0  0  0  0  0  0
  -26.0768   16.6104  -22.3717 C   0  0  0  0  0  0  0  0  0  0  0  0
  -27.1518   15.7512  -22.2358 C   0  0  0  0  0  0  0  0  0  0  0  0
  -26.6515   14.3893  -21.2168 S   0  0  0  0  0  0  0  0  0  0  0  0
  1  2  1  0
  2  3  1  0
  3  4  2  0
  4  5  1  0
  5  6  2  0
  6  7  1  0
  7  8  2  0
  7  9  1  0
  9 10  1  0
 10 11  1  0
 11 12  1  0
 12 13  1  0
 13 14  1  0
 13 15  1  0
 15 16  1  0
  9 17  1  0
 17 18  1  0
 18 19  2  0
 19 20  1  0
 20 21  2  0
 21 22  1  0
 22 23  2  0
 23 24  1  0
  8  3  1  0
 16 10  1  0
 23 18  1  0
 24  6  1  0
M  END
$$$$
