
     RDKit          3D

 12 10  0  0  0  0  0  0  0  0999 V2000
  -16.2969   -1.4261  -33.7424 C   0  0  0  0  0  0  0  0  0  0  0  0
  -14.9021   -0.9241  -33.4688 C   0  0  0  0  0  0  0  0  0  0  0  0
  -14.6491   -0.0249  -32.5398 N   0  0  0  0  0  0  0  0  0  0  0  0
  -13.6702    0.4506  -32.2188 C   0  0  0  0  0  0  0  0  0  0  0  0
  -13.1072    1.4008  -31.2973 N   0  0  0  0  0  0  0  0  0  0  0  0
  -12.4563   -0.3954  -33.3847 S   0  0  0  0  0  0  0  0  0  0  0  0
  -13.8225   -1.3644  -34.1660 C   0  0  0  0  0  0  0  0  0  0  0  0
  -13.6252   -2.3179  -35.2408 C   0  0  0  0  0  0  0  0  0  0  0  0
  -13.6661   -3.7587  -34.8591 C   0  0  0  0  0  0  0  0  0  0  0  0
  -13.4429   -4.5398  -36.0851 N   0  0  0  0  0  0  0  0  0  0  0  0
  -14.1080   -1.0237  -33.6760 Cl  0  0  0  0  0  0  0  0  0  0  0  0
  -14.1080   -1.0213  -33.6740 Cl  0  0  0  0  0  0  0  0  0  0  0  0
  1  2  1  0
  2  3  1  0
  3  4  2  0
  4  5  1  0
  4  6  1  0
  6  7  1  0
  7  8  1  0
  8  9  1  0
  9 10  1  0
  7  2  2  0
M  END
$$$$
