
     RDKit          3D

 10  9  0  0  0  0  0  0  0  0999 V2000
  -20.7272   35.1210  -22.4418 C   0  0  0  0  0  0  0  0  0  0  0  0
  -19.5435   35.0413  -23.2689 N   0  0  0  0  0  0  0  0  0  0  0  0
  -18.4024   35.6537  -22.6324 C   0  0  2  0  0  0  0  0  0  0  0  0
  -18.9124   36.3422  -21.3730 C   0  0  0  0  0  0  0  0  0  0  0  0
  -17.7446   36.8738  -20.6087 C   0  0  0  0  0  0  0  0  0  0  0  0
  -16.9642   36.1653  -19.9546 O   0  0  0  0  0  0  0  0  0  0  0  0
  -17.5000   38.2593  -20.6202 O   0  0  0  0  0  0  0  0  0  0  0  0
  -17.8574   36.7424  -23.4990 C   0  0  0  0  0  0  0  0  0  0  0  0
  -16.6240   36.8926  -23.6268 O   0  0  0  0  0  0  0  0  0  0  0  0
  -18.6834   37.6253  -24.1928 O   0  0  0  0  0  0  0  0  0  0  0  0
  1  2  1  0
  2  3  1  0
  3  4  1  1
  4  5  1  0
  5  6  2  0
  5  7  1  0
  3  8  1  0
  8  9  2  0
  8 10  1  0
M  END
$$$$
