
     RDKit          3D

 30 34  0  0  0  0  0  0  0  0999 V2000
  -16.0918   47.2489  -23.0621 O   0  0  0  0  0  0  0  0  0  0  0  0
  -16.0935   46.7946  -21.8799 C   0  0  0  0  0  0  0  0  0  0  0  0
  -16.3898   45.5081  -21.4534 O   0  0  0  0  0  0  0  0  0  0  0  0
  -16.2793   45.3972  -20.0528 C   0  0  1  0  0  0  0  0  0  0  0  0
  -17.6162   45.1006  -19.4639 C   0  0  0  0  0  0  0  0  0  0  0  0
  -17.6227   43.9305  -18.5364 C   0  0  0  0  0  0  0  0  0  0  0  0
  -16.9056   42.7310  -19.0570 C   0  0  1  0  0  0  0  0  0  0  0  0
  -17.7078   42.0292  -20.1246 C   0  0  0  0  0  0  0  0  0  0  0  0
  -18.4727   42.6888  -20.8707 O   0  0  0  0  0  0  0  0  0  0  0  0
  -17.6242   40.6353  -20.3138 N   0  0  0  0  0  0  0  0  0  0  0  0
  -18.7327   39.7597  -20.4416 C   0  0  0  0  0  0  0  0  0  0  0  0
  -20.0267   39.9362  -20.0707 C   0  0  0  0  0  0  0  0  0  0  0  0
  -20.7515   38.7865  -20.4046 C   0  0  0  0  0  0  0  0  0  0  0  0
  -19.8563   37.9573  -20.9680 N   0  0  0  0  0  0  0  0  0  0  0  0
  -20.2027   36.6568  -21.4533 C   0  0  0  0  0  0  0  0  0  0  0  0
  -21.0836   35.8541  -20.7598 C   0  0  0  0  0  0  0  0  0  0  0  0
  -21.4501   34.5933  -21.1846 C   0  0  0  0  0  0  0  0  0  0  0  0
  -20.9187   34.1081  -22.3491 C   0  0  0  0  0  0  0  0  0  0  0  0
  -20.0423   34.8826  -23.0575 C   0  0  0  0  0  0  0  0  0  0  0  0
  -19.6787   36.1462  -22.6263 C   0  0  0  0  0  0  0  0  0  0  0  0
  -18.8130   36.8861  -23.3455 F   0  0  0  0  0  0  0  0  0  0  0  0
  -18.6806   38.5243  -20.9894 N   0  0  0  0  0  0  0  0  0  0  0  0
  -15.5631   43.0272  -19.6409 C   0  0  0  0  0  0  0  0  0  0  0  0
  -15.1891   44.4703  -19.6258 C   0  0  0  0  0  0  0  0  0  0  0  0
  -15.8720   46.7822  -19.6256 C   0  0  0  0  0  0  0  0  0  0  0  0
  -15.6089   47.3080  -18.3759 C   0  0  0  0  0  0  0  0  0  0  0  0
  -15.2535   48.6072  -18.2433 N   0  0  0  0  0  0  0  0  0  0  0  0
  -15.1433   49.4262  -19.3010 C   0  0  0  0  0  0  0  0  0  0  0  0
  -15.3980   48.9390  -20.5680 C   0  0  0  0  0  0  0  0  0  0  0  0
  -15.7653   47.6010  -20.7180 C   0  0  0  0  0  0  0  0  0  0  0  0
  1  2  2  0
  2  3  1  0
  3  4  1  0
  4  5  1  1
  5  6  1  0
  6  7  1  0
  7  8  1  6
  8  9  2  0
  8 10  1  0
 10 11  1  0
 11 12  1  0
 12 13  2  0
 13 14  1  0
 14 15  1  0
 15 16  2  0
 16 17  1  0
 17 18  2  0
 18 19  1  0
 19 20  2  0
 20 21  1  0
 14 22  1  0
  7 23  1  0
 23 24  1  0
  4 25  1  0
 25 26  2  0
 26 27  1  0
 27 28  2  0
 28 29  1  0
 29 30  2  0
 30  2  1  0
 24  4  1  0
 30 25  1  0
 22 11  2  0
 20 15  1  0
M  END
$$$$
