
     RDKit          3D

 14 13  0  0  0  0  0  0  0  0999 V2000
  -19.9973   -0.4202  -32.6379 C   0  0  0  0  0  0  0  0  0  0  0  0
  -18.9112    0.2977  -33.2548 N   0  0  0  0  0  0  0  0  0  0  0  0
  -19.0585    0.9156  -34.5616 C   0  0  0  0  0  0  0  0  0  0  0  0
  -17.6585    0.4190  -32.5926 C   0  0  0  0  0  0  0  0  0  0  0  0
  -17.4849   -0.1026  -31.4542 O   0  0  0  0  0  0  0  0  0  0  0  0
  -16.5959    1.0940  -33.1427 O   0  0  0  0  0  0  0  0  0  0  0  0
  -15.3643    1.2303  -32.5247 C   0  0  0  0  0  0  0  0  0  0  0  0
  -15.1672    2.3198  -31.7082 C   0  0  0  0  0  0  0  0  0  0  0  0
  -13.9295    2.4552  -31.0881 C   0  0  0  0  0  0  0  0  0  0  0  0
  -12.9941    1.4839  -31.3412 C   0  0  0  0  0  0  0  0  0  0  0  0
  -13.2170    0.4305  -32.1445 N   0  0  0  0  0  4  0  0  0  0  0  0
  -12.1679   -0.5448  -32.3517 C   0  0  0  0  0  0  0  0  0  0  0  0
  -14.4053    0.2750  -32.7569 C   0  0  0  0  0  0  0  0  0  0  0  0
  -16.0312    0.6184  -32.5685 Br  0  0  0  0  0 15  0  0  0  0  0  0
  1  2  1  0
  2  3  1  0
  2  4  1  0
  4  5  2  0
  4  6  1  0
  6  7  1  0
  7  8  2  0
  8  9  1  0
  9 10  2  0
 10 11  1  0
 11 12  1  0
 11 13  2  0
 13  7  1  0
M  CHG  2  11   1  14  -1
M  END
$$$$
