
     RDKit          3D

 40 44  0  0  0  0  0  0  0  0999 V2000
  -23.9430   41.3158  -22.7902 C   0  0  0  0  0  0  0  0  0  0  0  0
  -22.6450   41.6789  -23.1747 O   0  0  0  0  0  0  0  0  0  0  0  0
  -22.0835   42.9007  -22.8217 C   0  0  0  0  0  0  0  0  0  0  0  0
  -22.7320   43.6347  -21.8448 C   0  0  0  0  0  0  0  0  0  0  0  0
  -22.2328   44.8660  -21.4383 C   0  0  0  0  0  0  0  0  0  0  0  0
  -21.0694   45.3439  -22.0333 C   0  0  0  0  0  0  0  0  0  0  0  0
  -20.4423   44.5918  -23.0051 C   0  0  0  0  0  0  0  0  0  0  0  0
  -20.9285   43.3678  -23.4169 C   0  0  0  0  0  0  0  0  0  0  0  0
  -20.2154   42.6186  -24.4655 C   0  0  2  0  0  0  0  0  0  0  0  0
  -18.9122   42.0212  -24.0627 C   0  0  0  0  0  0  0  0  0  0  0  0
  -18.9521   41.0948  -22.9727 N   0  0  0  0  0  0  0  0  0  0  0  0
  -19.5209   39.8761  -23.0626 C   0  0  0  0  0  0  0  0  0  0  0  0
  -20.0680   39.5057  -24.1324 O   0  0  0  0  0  0  0  0  0  0  0  0
  -19.4689   39.1026  -21.9672 N   0  0  0  0  0  0  0  0  0  0  0  0
  -20.0451   37.7502  -21.9810 C   0  0  0  0  0  0  0  0  0  0  0  0
  -19.8414   37.0816  -23.3401 C   0  0  0  0  0  0  0  0  0  0  0  0
  -21.4972   37.7231  -21.6734 C   0  0  0  0  0  0  0  0  0  0  0  0
  -19.3395   36.8976  -20.9978 C   0  0  0  0  0  0  0  0  0  0  0  0
  -18.3022   36.2941  -21.3594 O   0  0  0  0  0  0  0  0  0  0  0  0
  -19.7705   36.7330  -19.6918 O   0  0  0  0  0  0  0  0  0  0  0  0
  -18.8984   39.4547  -20.8032 C   0  0  0  0  0  0  0  0  0  0  0  0
  -18.9078   38.6516  -19.8388 O   0  0  0  0  0  0  0  0  0  0  0  0
  -18.2924   40.7370  -20.6870 C   0  0  0  0  0  0  0  0  0  0  0  0
  -17.6678   41.2459  -19.5993 C   0  0  0  0  0  0  0  0  0  0  0  0
  -17.4905   40.5596  -18.2510 C   0  0  0  0  0  0  0  0  0  0  0  0
  -17.1423   42.5125  -19.7255 C   0  0  0  0  0  0  0  0  0  0  0  0
  -16.4159   43.3293  -18.7599 C   0  0  0  0  0  0  0  0  0  0  0  0
  -16.0846   42.9449  -17.5357 N   0  0  0  0  0  0  0  0  0  0  0  0
  -15.4198   43.9503  -16.9202 C   0  0  0  0  0  0  0  0  0  0  0  0
  -15.3724   44.9648  -17.8532 C   0  0  0  0  0  0  0  0  0  0  0  0
  -15.9794   44.5539  -18.9404 O   0  0  0  0  0  0  0  0  0  0  0  0
  -17.5370   42.9713  -21.3783 S   0  0  0  0  0  0  0  0  0  0  0  0
  -18.3653   41.4758  -21.8015 C   0  0  0  0  0  0  0  0  0  0  0  0
  -20.0688   43.4572  -25.5872 O   0  0  0  0  0  0  0  0  0  0  0  0
  -21.2371   43.6124  -26.3027 C   0  0  0  0  0  0  0  0  0  0  0  0
  -21.0350   44.5787  -27.4242 C   0  0  0  0  0  0  0  0  0  0  0  0
  -22.0480   44.5258  -28.5141 C   0  0  0  0  0  0  0  0  0  0  0  0
  -22.5868   43.2779  -28.7504 O   0  0  0  0  0  0  0  0  0  0  0  0
  -23.0410   42.6458  -27.6220 C   0  0  0  0  0  0  0  0  0  0  0  0
  -21.8071   42.3021  -26.7871 C   0  0  0  0  0  0  0  0  0  0  0  0
  1  2  1  0
  2  3  1  0
  3  4  2  0
  4  5  1  0
  5  6  2  0
  6  7  1  0
  7  8  2  0
  8  9  1  0
  9 10  1  1
 10 11  1  0
 11 12  1  0
 12 13  2  0
 12 14  1  0
 14 15  1  0
 15 16  1  0
 15 17  1  0
 15 18  1  0
 18 19  2  0
 18 20  1  0
 14 21  1  0
 21 22  2  0
 21 23  1  0
 23 24  1  0
 24 25  1  0
 24 26  2  0
 26 27  1  0
 27 28  2  0
 28 29  1  0
 29 30  2  0
 30 31  1  0
 26 32  1  0
 32 33  1  0
  9 34  1  0
 34 35  1  0
 35 36  1  0
 36 37  1  0
 37 38  1  0
 38 39  1  0
 39 40  1  0
  8  3  1  0
 33 11  1  0
 40 35  1  0
 33 23  2  0
 31 27  1  0
M  END
$$$$
