
     RDKit          3D

 29 32  0  0  0  0  0  0  0  0999 V2000
  -29.2802   16.2188  -22.8002 C   0  0  0  0  0  0  0  0  0  0  0  0
  -30.4281   16.1955  -21.9777 O   0  0  0  0  0  0  0  0  0  0  0  0
  -30.7316   15.0482  -21.2480 C   0  0  0  0  0  0  0  0  0  0  0  0
  -32.0126   14.5390  -21.2837 C   0  0  0  0  0  0  0  0  0  0  0  0
  -32.3152   13.4181  -20.5727 C   0  0  0  0  0  0  0  0  0  0  0  0
  -31.3269   12.7967  -19.8159 C   0  0  0  0  0  0  0  0  0  0  0  0
  -31.6380   11.6492  -19.0885 O   0  0  0  0  0  0  0  0  0  0  0  0
  -32.9578   11.1866  -19.0654 C   0  0  0  0  0  0  0  0  0  0  0  0
  -30.0312   13.2899  -19.7642 C   0  0  0  0  0  0  0  0  0  0  0  0
  -29.0449   12.5659  -18.9344 C   0  0  0  0  0  0  0  0  0  0  0  0
  -29.2633   12.2211  -17.6406 N   0  0  0  0  0  0  0  0  0  0  0  0
  -28.2054   11.5952  -17.1915 N   0  0  0  0  0  0  0  0  0  0  0  0
  -27.3075   11.5294  -18.1714 C   0  0  0  0  0  0  0  0  0  0  0  0
  -27.8105   12.1202  -19.2423 N   0  0  0  0  0  0  0  0  0  0  0  0
  -27.0856   12.1990  -20.4196 N   0  0  0  0  0  0  0  0  0  0  0  0
  -25.9302   11.7757  -20.6900 C   0  0  0  0  0  0  0  0  0  0  0  0
  -25.4241   12.0098  -22.0356 C   0  0  0  0  0  0  0  0  0  0  0  0
  -24.3184   11.3832  -22.5249 C   0  0  0  0  0  0  0  0  0  0  0  0
  -23.8550   11.6298  -23.8265 C   0  0  0  0  0  0  0  0  0  0  0  0
  -24.5250   12.5157  -24.6199 C   0  0  0  0  0  0  0  0  0  0  0  0
  -24.0905   12.7832  -25.9186 O   0  0  0  0  0  0  0  0  0  0  0  0
  -22.7494   12.5741  -26.3202 C   0  0  0  0  0  0  0  0  0  0  0  0
  -25.6465   13.1651  -24.1536 C   0  0  0  0  0  0  0  0  0  0  0  0
  -26.2861   14.0448  -24.9843 O   0  0  0  0  0  0  0  0  0  0  0  0
  -27.4742   14.7320  -24.6597 C   0  0  0  0  0  0  0  0  0  0  0  0
  -26.0763   12.8951  -22.8573 C   0  0  0  0  0  0  0  0  0  0  0  0
  -24.9885   11.0470  -19.7884 C   0  0  0  0  0  0  0  0  0  0  0  0
  -25.7032   10.8129  -18.1704 S   0  0  0  0  0  0  0  0  0  0  0  0
  -29.7628   14.4054  -20.4820 C   0  0  0  0  0  0  0  0  0  0  0  0
  1  2  1  0
  2  3  1  0
  3  4  2  0
  4  5  1  0
  5  6  2  0
  6  7  1  0
  7  8  1  0
  6  9  1  0
  9 10  1  0
 10 11  2  0
 11 12  1  0
 12 13  2  0
 13 14  1  0
 14 15  1  0
 15 16  2  0
 16 17  1  0
 17 18  2  0
 18 19  1  0
 19 20  2  0
 20 21  1  0
 21 22  1  0
 20 23  1  0
 23 24  1  0
 24 25  1  0
 23 26  2  0
 16 27  1  0
 27 28  1  0
  9 29  2  0
 29  3  1  0
 14 10  1  0
 26 17  1  0
 28 13  1  0
M  END
$$$$
