
     RDKit          3D

 28 31  0  0  0  0  0  0  0  0999 V2000
  -20.6757   36.7935  -25.6586 C   0  0  0  0  0  0  0  0  0  0  0  0
  -19.8257   36.8440  -24.4256 C   0  0  0  0  0  0  0  0  0  0  0  0
  -19.2295   35.7939  -24.1204 O   0  0  0  0  0  0  0  0  0  0  0  0
  -19.6787   37.9398  -23.6519 O   0  0  0  0  0  0  0  0  0  0  0  0
  -20.0457   38.1171  -22.2926 C   0  0  2  0  0  0  0  0  0  0  0  0
  -19.8409   36.8864  -21.5116 C   0  0  0  0  0  0  0  0  0  0  0  0
  -20.8433   35.8428  -21.2554 C   0  0  0  0  0  0  0  0  0  0  0  0
  -18.7468   36.6845  -21.0218 O   0  0  0  0  0  0  0  0  0  0  0  0
  -21.5978   38.2299  -22.3791 C   0  0  0  0  0  0  0  0  0  0  0  0
  -21.9150   39.5402  -21.6802 C   0  0  0  0  0  0  0  0  0  0  0  0
  -20.7346   40.3448  -22.1234 C   0  0  1  0  0  0  0  0  0  0  0  0
  -20.5536   41.6382  -21.4301 C   0  0  2  0  0  0  0  0  0  0  0  0
  -21.7450   42.5628  -21.5547 C   0  0  0  0  0  0  0  0  0  0  0  0
  -21.4518   43.7511  -20.6746 C   0  0  2  0  0  0  0  0  0  0  0  0
  -22.6438   44.6484  -20.4846 C   0  0  0  0  0  0  0  0  0  0  0  0
  -20.2799   44.4647  -21.2177 C   0  0  0  0  0  0  0  0  0  0  0  0
  -20.2835   45.7886  -21.2673 C   0  0  0  0  0  0  0  0  0  0  0  0
  -19.1735   46.5341  -21.7838 C   0  0  0  0  0  0  0  0  0  0  0  0
  -19.1654   47.7785  -21.7849 O   0  0  0  0  0  0  0  0  0  0  0  0
  -18.0002   45.7952  -22.3331 C   0  0  0  0  0  0  0  0  0  0  0  0
  -18.4924   44.4681  -22.8689 C   0  0  0  0  0  0  0  0  0  0  0  0
  -19.1173   43.7015  -21.6937 C   0  0  1  0  0  0  0  0  0  0  0  0
  -18.0519   43.7243  -20.5973 C   0  0  0  0  0  0  0  0  0  0  0  0
  -19.3965   42.3190  -22.1654 C   0  0  1  0  0  0  0  0  0  0  0  0
  -18.1834   41.4775  -22.1619 C   0  0  0  0  0  0  0  0  0  0  0  0
  -18.3783   40.0165  -22.4277 C   0  0  0  0  0  0  0  0  0  0  0  0
  -19.5779   39.4010  -21.7383 C   0  0  2  0  0  0  0  0  0  0  0  0
  -19.3109   39.4664  -20.2698 C   0  0  0  0  0  0  0  0  0  0  0  0
  1  2  1  0
  2  3  2  0
  2  4  1  0
  5  4  1  6
  5  6  1  0
  6  7  1  0
  6  8  2  0
  5  9  1  0
  9 10  1  0
 11 10  1  1
 11 12  1  0
 12 13  1  6
 13 14  1  0
 14 15  1  6
 14 16  1  0
 16 17  2  0
 17 18  1  0
 18 19  2  0
 18 20  1  0
 20 21  1  0
 21 22  1  0
 22 23  1  1
 22 24  1  0
 24 25  1  1
 25 26  1  0
 26 27  1  0
 27 28  1  1
 27  5  1  0
 27 11  1  0
 24 12  1  0
 22 16  1  0
M  END
$$$$
