
     RDKit          3D

 16 17  0  0  0  0  0  0  0  0999 V2000
  -17.3222   36.0033  -20.9165 O   0  0  0  0  0  0  0  0  0  0  0  0
  -18.4805   36.2380  -21.3472 C   0  0  0  0  0  0  0  0  0  0  0  0
  -19.3980   35.2734  -21.0056 C   0  0  0  0  0  0  0  0  0  0  0  0
  -20.7814   35.4361  -20.9952 C   0  0  0  0  0  0  0  0  0  0  0  0
  -21.5264   36.3909  -21.6636 C   0  0  0  0  0  0  0  0  0  0  0  0
  -21.1266   37.4053  -22.5253 C   0  0  0  0  0  0  0  0  0  0  0  0
  -22.1665   37.9748  -23.2323 C   0  0  0  0  0  0  0  0  0  0  0  0
  -21.9404   39.0078  -24.1418 C   0  0  0  0  0  0  0  0  0  0  0  0
  -22.9863   39.5827  -24.8549 O   0  0  0  0  0  0  0  0  0  0  0  0
  -20.6406   39.4593  -24.3273 C   0  0  0  0  0  0  0  0  0  0  0  0
  -20.4151   40.4894  -25.2342 O   0  0  0  0  0  0  0  0  0  0  0  0
  -19.6210   38.8654  -23.6014 C   0  0  0  0  0  0  0  0  0  0  0  0
  -18.3248   39.3168  -23.7875 O   0  0  0  0  0  0  0  0  0  0  0  0
  -19.8283   37.8542  -22.7087 C   0  0  0  0  0  0  0  0  0  0  0  0
  -18.6711   37.3938  -22.0812 C   0  0  0  0  0  0  0  0  0  0  0  0
  -17.5835   38.2206  -22.2270 O   0  0  0  0  0  0  0  0  0  0  0  0
  1  2  2  0
  2  3  1  0
  3  4  2  0
  4  5  1  0
  5  6  2  0
  6  7  1  0
  7  8  2  0
  8  9  1  0
  8 10  1  0
 10 11  1  0
 10 12  2  0
 12 13  1  0
 12 14  1  0
 14 15  2  0
 15 16  1  0
 15  2  1  0
 14  6  1  0
M  END
$$$$
