
     RDKit          3D

 37 39  0  0  0  0  0  0  0  0999 V2000
  -21.1313   40.2422  -25.6946 C   0  0  0  0  0  0  0  0  0  0  0  0
  -21.1670   39.6516  -24.2947 C   0  0  0  0  0  0  0  0  0  0  0  0
  -19.9288   39.8691  -23.5934 N   0  0  0  0  0  0  0  0  0  0  0  0
  -19.4218   41.1880  -23.3323 C   0  0  0  0  0  0  0  0  0  0  0  0
  -20.0930   42.1655  -23.7357 O   0  0  0  0  0  0  0  0  0  0  0  0
  -18.1490   41.2938  -22.6089 C   0  0  1  0  0  0  0  0  0  0  0  0
  -17.7262   42.5772  -22.3953 O   0  0  0  0  0  0  0  0  0  0  0  0
  -17.0998   42.6201  -21.1746 C   0  0  1  0  0  0  0  0  0  0  0  0
  -16.9489   43.9379  -20.6509 N   0  0  0  0  0  0  0  0  0  0  0  0
  -17.7967   44.9538  -20.6819 C   0  0  0  0  0  0  0  0  0  0  0  0
  -17.2756   46.0422  -20.0707 N   0  0  0  0  0  0  0  0  0  0  0  0
  -16.0456   45.6971  -19.6356 C   0  0  0  0  0  0  0  0  0  0  0  0
  -15.0425   46.3528  -18.9568 C   0  0  0  0  0  0  0  0  0  0  0  0
  -15.1910   47.7075  -18.5554 N   0  0  0  0  0  0  0  0  0  0  0  0
  -13.8903   45.7316  -18.6522 N   0  0  0  0  0  0  0  0  0  0  0  0
  -13.6894   44.4469  -19.0058 C   0  0  0  0  0  0  0  0  0  0  0  0
  -12.4532   43.8036  -18.6711 N   0  0  0  0  0  0  0  0  0  0  0  0
  -12.1980   42.4374  -19.0275 C   0  0  0  0  0  0  0  0  0  0  0  0
  -10.8615   41.9239  -18.5893 C   0  0  0  0  0  0  0  0  0  0  0  0
  -10.7067   41.9844  -17.1198 C   0  0  0  0  0  0  0  0  0  0  0  0
  -10.1380   43.0159  -16.4250 C   0  0  0  0  0  0  0  0  0  0  0  0
  -10.0514   42.9822  -15.0462 C   0  0  0  0  0  0  0  0  0  0  0  0
  -10.5285   41.9188  -14.3321 C   0  0  0  0  0  0  0  0  0  0  0  0
  -10.4476   41.7817  -12.8561 C   0  0  0  0  0  0  0  0  0  0  0  0
   -9.3474   40.9042  -12.3627 C   0  0  0  0  0  0  0  0  0  0  0  0
   -7.9991   41.3364  -12.7233 C   0  0  0  0  0  0  0  0  0  0  0  0
   -7.7927   42.3717  -13.3721 O   0  0  0  0  0  0  0  0  0  0  0  0
   -6.8646   40.5768  -12.3389 O   0  0  0  0  0  0  0  0  0  0  0  0
  -11.1088   40.8624  -15.0136 C   0  0  0  0  0  0  0  0  0  0  0  0
  -11.1945   40.8983  -16.3834 C   0  0  0  0  0  0  0  0  0  0  0  0
  -14.6680   43.8145  -19.6655 N   0  0  0  0  0  0  0  0  0  0  0  0
  -15.8493   44.3730  -20.0049 C   0  0  0  0  0  0  0  0  0  0  0  0
  -18.0621   41.7836  -20.3198 C   0  0  2  0  0  0  0  0  0  0  0  0
  -17.4652   41.3794  -19.1405 O   0  0  0  0  0  0  0  0  0  0  0  0
  -18.3194   40.6281  -21.2637 C   0  0  2  0  0  0  0  0  0  0  0  0
  -17.3214   39.6773  -21.1253 O   0  0  0  0  0  0  0  0  0  0  0  0
  -14.0917   42.2214  -18.5673 Cl  0  0  0  0  0  0  0  0  0  0  0  0
  1  2  1  0
  2  3  1  0
  3  4  1  0
  4  5  2  0
  6  4  1  1
  6  7  1  0
  7  8  1  0
  8  9  1  1
  9 10  1  0
 10 11  2  0
 11 12  1  0
 12 13  2  0
 13 14  1  0
 13 15  1  0
 15 16  2  0
 16 17  1  0
 17 18  1  0
 18 19  1  0
 19 20  1  0
 20 21  2  0
 21 22  1  0
 22 23  2  0
 23 24  1  0
 24 25  1  0
 25 26  1  0
 26 27  2  0
 26 28  1  0
 23 29  1  0
 29 30  2  0
 16 31  1  0
 31 32  2  0
  8 33  1  0
 33 34  1  1
 33 35  1  0
 35 36  1  1
 35  6  1  0
 32  9  1  0
 32 12  1  0
 30 20  1  0
M  END
$$$$
