
     RDKit          3D

 21 23  0  0  0  0  0  0  0  0999 V2000
  -19.7624   44.9011  -25.8880 C   0  0  0  0  0  0  0  0  0  0  0  0
  -20.4519   44.1872  -25.0378 C   0  0  0  0  0  0  0  0  0  0  0  0
  -20.2346   42.7533  -24.9670 C   0  0  0  0  0  0  0  0  0  0  0  0
  -20.4747   42.0073  -25.9806 O   0  0  0  0  0  0  0  0  0  0  0  0
  -19.7535   42.1146  -23.7919 N   0  0  0  0  0  0  0  0  0  0  0  0
  -19.9394   40.6870  -23.6473 C   0  0  0  0  0  0  0  0  0  0  0  0
  -18.5738   40.1406  -23.2346 C   0  0  2  0  0  0  0  0  0  0  0  0
  -18.6814   38.7009  -23.1486 N   0  0  0  0  0  0  0  0  0  0  0  0
  -18.7865   37.9935  -21.9439 C   0  0  0  0  0  0  0  0  0  0  0  0
  -18.6557   38.5755  -20.7449 N   0  0  0  0  0  0  0  0  0  0  0  0
  -18.7620   37.8666  -19.5912 C   0  0  0  0  0  0  0  0  0  0  0  0
  -19.0037   36.5460  -19.5962 N   0  0  0  0  0  0  0  0  0  0  0  0
  -19.1438   35.9116  -20.7804 C   0  0  0  0  0  0  0  0  0  0  0  0
  -19.3847   34.6301  -21.0926 N   0  0  0  0  0  0  0  0  0  0  0  0
  -19.4381   34.4860  -22.4282 C   0  0  0  0  0  0  0  0  0  0  0  0
  -19.2228   35.7237  -22.9797 C   0  0  0  0  0  0  0  0  0  0  0  0
  -19.0350   36.6379  -21.9657 C   0  0  0  0  0  0  0  0  0  0  0  0
  -18.2879   40.7000  -21.8836 C   0  0  0  0  0  0  0  0  0  0  0  0
  -18.3444   42.1717  -21.7657 C   0  0  0  0  0  0  0  0  0  0  0  0
  -19.1025   42.9034  -22.7930 C   0  0  2  0  0  0  0  0  0  0  0  0
  -20.1418   43.8293  -22.1797 C   0  0  0  0  0  0  0  0  0  0  0  0
  1  2  2  0
  2  3  1  0
  3  4  2  0
  3  5  1  0
  5  6  1  0
  6  7  1  0
  7  8  1  1
  8  9  1  0
  9 10  2  0
 10 11  1  0
 11 12  2  0
 12 13  1  0
 13 14  1  0
 14 15  1  0
 15 16  2  0
 16 17  1  0
  7 18  1  0
 18 19  1  0
 19 20  1  0
 20 21  1  1
 20  5  1  0
 17  9  1  0
 17 13  2  0
M  END
$$$$
