
     RDKit          3D

 28 32  0  0  0  0  0  0  0  0999 V2000
  -24.2105   42.5696  -25.7440 C   0  0  0  0  0  0  0  0  0  0  0  0
  -22.8180   42.7045  -25.8151 O   0  0  0  0  0  0  0  0  0  0  0  0
  -21.9856   42.1997  -24.8271 C   0  0  0  0  0  0  0  0  0  0  0  0
  -22.2075   40.9394  -24.3128 C   0  0  0  0  0  0  0  0  0  0  0  0
  -21.4081   40.3819  -23.3235 C   0  0  0  0  0  0  0  0  0  0  0  0
  -21.6470   39.1229  -22.8244 C   0  0  0  0  0  0  0  0  0  0  0  0
  -22.7044   38.3962  -23.3167 O   0  0  0  0  0  0  0  0  0  0  0  0
  -20.8378   38.5986  -21.8455 C   0  0  0  0  0  0  0  0  0  0  0  0
  -19.7816   39.3316  -21.3577 C   0  0  0  0  0  0  0  0  0  0  0  0
  -19.5212   40.5954  -21.8413 C   0  0  0  0  0  0  0  0  0  0  0  0
  -18.4182   41.4176  -21.3636 C   0  0  0  0  0  0  0  0  0  0  0  0
  -17.1449   41.3101  -21.8851 C   0  0  0  0  0  0  0  0  0  0  0  0
  -16.0813   42.0749  -21.4529 C   0  0  0  0  0  0  0  0  0  0  0  0
  -16.2784   42.9880  -20.4621 C   0  0  0  0  0  0  0  0  0  0  0  0
  -17.5416   43.1327  -19.9062 C   0  0  0  0  0  0  0  0  0  0  0  0
  -18.5940   42.3587  -20.3513 C   0  0  0  0  0  0  0  0  0  0  0  0
  -17.3962   44.1240  -18.9468 O   0  0  0  0  0  0  0  0  0  0  0  0
  -16.1713   44.8078  -19.1314 C   0  0  0  0  0  0  0  0  0  0  0  0
  -15.3977   43.8686  -19.8532 O   0  0  0  0  0  0  0  0  0  0  0  0
  -20.3311   41.1234  -22.8230 C   0  0  0  0  0  0  0  0  0  0  0  0
  -20.1036   42.3852  -23.3334 C   0  0  0  0  0  0  0  0  0  0  0  0
  -20.9210   42.9124  -24.3210 C   0  0  0  0  0  0  0  0  0  0  0  0
  -20.6823   44.1877  -24.8294 O   0  0  0  0  0  0  0  0  0  0  0  0
  -19.3559   44.6064  -25.0599 C   0  0  0  0  0  0  0  0  0  0  0  0
  -19.0879   38.5769  -20.3484 C   0  0  0  0  0  0  0  0  0  0  0  0
  -18.0635   38.9767  -19.7020 O   0  0  0  0  0  0  0  0  0  0  0  0
  -19.7447   37.3687  -20.2323 O   0  0  0  0  0  0  0  0  0  0  0  0
  -20.8321   37.3104  -21.1224 C   0  0  0  0  0  0  0  0  0  0  0  0
  1  2  1  0
  2  3  1  0
  3  4  2  0
  4  5  1  0
  5  6  2  0
  6  7  1  0
  6  8  1  0
  8  9  2  0
  9 10  1  0
 10 11  1  0
 11 12  2  0
 12 13  1  0
 13 14  2  0
 14 15  1  0
 15 16  2  0
 15 17  1  0
 17 18  1  0
 18 19  1  0
 10 20  2  0
 20 21  1  0
 21 22  2  0
 22 23  1  0
 23 24  1  0
  9 25  1  0
 25 26  2  0
 25 27  1  0
 27 28  1  0
 22  3  1  0
 20  5  1  0
 28  8  1  0
 16 11  1  0
 19 14  1  0
M  END
$$$$
