
     RDKit          3D

 14 16  0  0  0  0  0  0  0  0999 V2000
  -25.0660   30.7152  -37.2158 C   0  0  0  0  0  0  0  0  0  0  0  0
  -24.3417   30.6122  -36.0497 C   0  0  0  0  0  0  0  0  0  0  0  0
  -24.4499   29.4522  -35.3032 C   0  0  0  0  0  0  0  0  0  0  0  0
  -25.2528   28.4290  -35.7049 C   0  0  0  0  0  0  0  0  0  0  0  0
  -25.9811   28.4926  -36.8463 C   0  0  0  0  0  0  0  0  0  0  0  0
  -25.8627   29.6658  -37.5879 C   0  0  0  0  0  0  0  0  0  0  0  0
  -26.8313   27.4894  -37.3347 N   0  0  0  0  0  0  0  0  0  0  0  0
  -27.0589   26.2474  -36.7029 C   0  0  0  0  0  0  0  0  0  0  0  0
  -27.9343   25.3255  -37.2928 C   0  0  0  0  0  0  0  0  0  0  0  0
  -28.2161   24.0975  -36.7532 C   0  0  0  0  0  0  0  0  0  0  0  0
  -27.6050   23.7418  -35.5587 C   0  0  0  0  0  0  0  0  0  0  0  0
  -26.7437   24.6440  -34.9746 C   0  0  0  0  0  0  0  0  0  0  0  0
  -26.4774   25.8538  -35.5231 C   0  0  0  0  0  0  0  0  0  0  0  0
  -25.3352   26.9756  -34.6901 S   0  0  0  0  0  0  0  0  0  0  0  0
  1  2  2  0
  2  3  1  0
  3  4  2  0
  4  5  1  0
  5  6  2  0
  5  7  1  0
  7  8  1  0
  8  9  2  0
  9 10  1  0
 10 11  2  0
 11 12  1  0
 12 13  2  0
 13 14  1  0
  6  1  1  0
 13  8  1  0
 14  4  1  0
M  END
$$$$
