
     RDKit          3D

 31 34  0  0  0  0  0  0  0  0999 V2000
  -32.9875    6.8006  -24.2135 C   0  0  0  0  0  0  0  0  0  0  0  0
  -31.9694    7.8206  -23.7814 C   0  0  0  0  0  0  0  0  0  0  0  0
  -31.1418    8.2847  -24.8079 O   0  0  0  0  0  0  0  0  0  0  0  0
  -30.1113    9.1882  -24.6735 C   0  0  0  0  0  0  0  0  0  0  0  0
  -29.9896    9.9109  -23.5073 C   0  0  0  0  0  0  0  0  0  0  0  0
  -28.9811   10.8277  -23.3147 C   0  0  0  0  0  0  0  0  0  0  0  0
  -28.8269   11.6042  -22.0825 C   0  0  0  0  0  0  0  0  0  0  0  0
  -29.6577   11.1016  -21.0033 N   0  0  0  0  0  0  0  0  0  0  0  0
  -29.1000   10.3996  -19.8921 C   0  0  0  0  0  0  0  0  0  0  0  0
  -27.7480   10.1627  -19.7982 C   0  0  0  0  0  0  0  0  0  0  0  0
  -27.1660    9.4898  -18.7452 C   0  0  0  0  0  0  0  0  0  0  0  0
  -25.6900    9.2582  -18.6900 C   0  0  0  0  0  0  0  0  0  0  0  0
  -27.9968    9.0369  -17.7414 C   0  0  0  0  0  0  0  0  0  0  0  0
  -29.3587    9.2777  -17.8397 C   0  0  0  0  0  0  0  0  0  0  0  0
  -29.8702    9.9380  -18.8875 N   0  0  0  0  0  0  0  0  0  0  0  0
  -29.0499   13.0582  -22.2807 C   0  0  0  0  0  0  0  0  0  0  0  0
  -30.3039   13.4669  -22.7190 C   0  0  0  0  0  0  0  0  0  0  0  0
  -30.5626   14.8057  -22.9254 C   0  0  0  0  0  0  0  0  0  0  0  0
  -29.5443   15.7386  -22.6864 C   0  0  0  0  0  0  0  0  0  0  0  0
  -29.7782   17.0714  -22.8839 C   0  0  0  0  0  0  0  0  0  0  0  0
  -28.7590   17.9637  -22.6404 C   0  0  0  0  0  0  0  0  0  0  0  0
  -27.5116   17.5412  -22.2030 C   0  0  0  0  0  0  0  0  0  0  0  0
  -27.3427   16.2243  -22.0278 N   0  0  0  0  0  0  0  0  0  0  0  0
  -28.3069   15.3091  -22.2515 C   0  0  0  0  0  0  0  0  0  0  0  0
  -28.0408   13.9501  -22.0409 C   0  0  0  0  0  0  0  0  0  0  0  0
  -26.8088   13.5027  -21.6057 O   0  0  0  0  0  0  0  0  0  0  0  0
  -28.0803   10.9991  -24.3523 C   0  0  0  0  0  0  0  0  0  0  0  0
  -28.1925   10.2879  -25.5116 C   0  0  0  0  0  0  0  0  0  0  0  0
  -29.2184    9.3693  -25.6807 C   0  0  0  0  0  0  0  0  0  0  0  0
  -29.3712    8.6280  -26.8345 O   0  0  0  0  0  0  0  0  0  0  0  0
  -28.2738    8.1207  -27.5736 C   0  0  0  0  0  0  0  0  0  0  0  0
  1  2  1  0
  2  3  1  0
  3  4  1  0
  4  5  2  0
  5  6  1  0
  6  7  1  0
  7  8  1  0
  8  9  1  0
  9 10  2  0
 10 11  1  0
 11 12  1  0
 11 13  2  0
 13 14  1  0
 14 15  2  0
  7 16  1  0
 16 17  2  0
 17 18  1  0
 18 19  2  0
 19 20  1  0
 20 21  2  0
 21 22  1  0
 22 23  2  0
 23 24  1  0
 24 25  2  0
 25 26  1  0
  6 27  2  0
 27 28  1  0
 28 29  2  0
 29 30  1  0
 30 31  1  0
 29  4  1  0
 15  9  1  0
 25 16  1  0
 24 19  1  0
M  END
$$$$
