
     RDKit          3D

 19 20  0  0  0  0  0  0  0  0999 V2000
  -11.2887   44.4258  -16.2236 C   0  0  0  0  0  0  0  0  0  0  0  0
  -12.3822   44.2347  -17.2143 C   0  0  0  0  0  0  0  0  0  0  0  0
  -12.3407   44.7503  -18.4923 C   0  0  0  0  0  0  0  0  0  0  0  0
  -13.3342   44.5890  -19.4250 C   0  0  0  0  0  0  0  0  0  0  0  0
  -13.2154   45.1681  -20.7992 C   0  0  0  0  0  0  0  0  0  0  0  0
  -14.4600   43.8482  -19.0364 C   0  0  0  0  0  0  0  0  0  0  0  0
  -15.7372   43.6479  -20.1991 S   0  0  0  0  0  6  0  0  0  0  0  0
  -16.6316   42.4858  -19.8715 O   0  0  0  0  0  0  0  0  0  0  0  0
  -15.1375   43.2966  -21.5558 O   0  0  0  0  0  0  0  0  0  0  0  0
  -16.6852   45.0506  -20.4425 N   0  0  0  0  0  0  0  0  0  0  0  0
  -16.4801   46.0828  -21.2788 C   0  0  0  0  0  0  0  0  0  0  0  0
  -17.4743   47.0388  -21.1533 C   0  0  0  0  0  0  0  0  0  0  0  0
  -17.5779   48.3259  -21.9226 C   0  0  0  0  0  0  0  0  0  0  0  0
  -18.3323   46.5737  -20.1952 C   0  0  0  0  0  0  0  0  0  0  0  0
  -17.8344   45.3532  -19.7699 C   0  0  0  0  0  0  0  0  0  0  0  0
  -18.4466   44.4585  -18.7483 C   0  0  0  0  0  0  0  0  0  0  0  0
  -14.5661   43.3077  -17.7808 C   0  0  0  0  0  0  0  0  0  0  0  0
  -15.7665   42.5285  -17.3482 C   0  0  0  0  0  0  0  0  0  0  0  0
  -13.5141   43.5168  -16.8937 C   0  0  0  0  0  0  0  0  0  0  0  0
  1  2  1  0
  2  3  2  0
  3  4  1  0
  4  5  1  0
  4  6  2  0
  6  7  1  0
  7  8  2  0
  7  9  2  0
  7 10  1  0
 10 11  1  0
 11 12  2  0
 12 13  1  0
 12 14  1  0
 14 15  2  0
 15 16  1  0
  6 17  1  0
 17 18  1  0
 17 19  2  0
 19  2  1  0
 15 10  1  0
M  END
$$$$
