
     RDKit          3D

 17 19  0  0  0  0  0  0  0  0999 V2000
  -31.9661   12.0760  -22.4089 C   0  0  0  0  0  0  0  0  0  0  0  0
  -31.7116   13.1350  -21.3702 C   0  0  0  0  0  0  0  0  0  0  0  0
  -30.3218   13.3713  -21.0956 N   0  0  0  0  0  0  0  0  0  0  0  0
  -29.5178   12.8026  -20.2046 C   0  0  0  0  0  0  0  0  0  0  0  0
  -29.6864   11.7470  -19.2237 C   0  0  0  0  0  0  0  0  0  0  0  0
  -30.7295   10.8554  -19.3319 N   0  0  0  0  0  0  0  0  0  0  0  0
  -30.6769    9.9839  -18.3829 O   0  0  0  0  0  0  0  0  0  0  0  0
  -29.6687   10.2060  -17.6190 N   0  0  0  0  0  0  0  0  0  0  0  0
  -29.0298   11.3153  -18.1311 C   0  0  0  0  0  0  0  0  0  0  0  0
  -27.8987   11.8583  -17.5281 N   0  0  0  0  0  0  0  0  0  0  0  0
  -28.3044   13.4431  -20.3452 N   0  0  0  0  0  0  0  0  0  0  0  0
  -28.3516   14.3680  -21.2845 C   0  0  0  0  0  0  0  0  0  0  0  0
  -27.4505   15.2697  -21.8168 C   0  0  0  0  0  0  0  0  0  0  0  0
  -27.7863   16.1411  -22.8238 C   0  0  0  0  0  0  0  0  0  0  0  0
  -29.0670   16.1202  -23.3256 C   0  0  0  0  0  0  0  0  0  0  0  0
  -29.9644   15.2204  -22.7936 C   0  0  0  0  0  0  0  0  0  0  0  0
  -29.6245   14.3331  -21.7692 C   0  0  0  0  0  0  0  0  0  0  0  0
  1  2  1  0
  2  3  1  0
  3  4  1  0
  4  5  1  0
  5  6  2  0
  6  7  1  0
  7  8  1  0
  8  9  2  0
  9 10  1  0
  4 11  2  0
 11 12  1  0
 12 13  2  0
 13 14  1  0
 14 15  2  0
 15 16  1  0
 16 17  2  0
 17  3  1  0
  9  5  1  0
 17 12  1  0
M  END
$$$$
