
     RDKit          3D

 22 23  0  0  0  0  0  0  0  0999 V2000
  -16.1497   -5.0685  -30.6138 C   0  0  0  0  0  0  0  0  0  0  0  0
  -17.1752   -4.0516  -30.6305 N   0  0  0  0  0  0  0  0  0  0  0  0
  -16.7822   -2.9332  -29.8300 C   0  0  0  0  0  0  0  0  0  0  0  0
  -15.6293   -2.1768  -30.4036 C   0  0  0  0  0  0  0  0  0  0  0  0
  -15.9751   -1.6299  -31.7795 C   0  0  2  0  0  0  0  0  0  0  0  0
  -14.8501   -0.9404  -32.2340 O   0  0  0  0  0  0  0  0  0  0  0  0
  -14.2127   -1.1380  -33.4449 C   0  0  0  0  0  0  0  0  0  0  0  0
  -14.6122   -2.0628  -34.3817 C   0  0  0  0  0  0  0  0  0  0  0  0
  -13.8783   -2.1552  -35.5581 C   0  0  0  0  0  0  0  0  0  0  0  0
  -12.7914   -1.3514  -35.7786 C   0  0  0  0  0  0  0  0  0  0  0  0
  -12.4127   -0.4365  -34.8289 C   0  0  0  0  0  0  0  0  0  0  0  0
  -11.3095    0.3975  -35.0205 C   0  0  0  0  0  0  0  0  0  0  0  0
  -10.9275    1.3147  -34.0686 C   0  0  0  0  0  0  0  0  0  0  0  0
  -11.6295    1.4349  -32.8919 C   0  0  0  0  0  0  0  0  0  0  0  0
  -12.7177    0.6087  -32.7086 C   0  0  0  0  0  0  0  0  0  0  0  0
  -13.1002   -0.3081  -33.6592 C   0  0  0  0  0  0  0  0  0  0  0  0
  -17.0378   -0.5919  -31.5624 C   0  0  0  0  0  0  0  0  0  0  0  0
  -16.9740    0.6310  -30.9495 C   0  0  0  0  0  0  0  0  0  0  0  0
  -18.0543    1.3891  -30.8756 C   0  0  0  0  0  0  0  0  0  0  0  0
  -19.2106    0.8709  -31.4438 C   0  0  0  0  0  0  0  0  0  0  0  0
  -18.7237   -0.6733  -32.0628 S   0  0  0  0  0  0  0  0  0  0  0  0
  -15.5261   -1.2858  -31.8211 Cl  0  0  0  0  0  0  0  0  0  0  0  0
  1  2  1  0
  2  3  1  0
  3  4  1  0
  5  4  1  1
  5  6  1  0
  6  7  1  0
  7  8  2  0
  8  9  1  0
  9 10  2  0
 10 11  1  0
 11 12  2  0
 12 13  1  0
 13 14  2  0
 14 15  1  0
 15 16  2  0
  5 17  1  0
 17 18  2  0
 18 19  1  0
 19 20  2  0
 20 21  1  0
 16  7  1  0
 21 17  1  0
 16 11  1  0
M  END
$$$$
