
     RDKit          3D

 20 22  0  0  0  0  0  0  0  0999 V2000
  -23.0788   24.1143  -26.7705 O   0  0  0  0  0  0  0  0  0  0  0  0
  -24.1617   24.3530  -27.6107 C   0  0  0  0  0  0  0  0  0  0  0  0
  -23.9875   25.1673  -28.6911 C   0  0  0  0  0  0  0  0  0  0  0  0
  -25.0781   25.4040  -29.5321 C   0  0  0  0  0  0  0  0  0  0  0  0
  -26.3187   24.8641  -29.3340 C   0  0  0  0  0  0  0  0  0  0  0  0
  -27.4134   25.1302  -30.1768 N   0  0  0  0  0  0  0  0  0  0  0  0
  -27.5798   24.5947  -31.4801 C   0  0  0  0  0  0  0  0  0  0  0  0
  -28.4212   24.8078  -32.4292 N   0  0  0  0  0  0  0  0  0  0  0  0
  -28.3751   24.2123  -33.5683 C   0  0  0  0  0  0  0  0  0  0  0  0
  -29.3736   24.4904  -34.6454 C   0  0  0  0  0  0  0  0  0  0  0  0
  -30.0063   25.6947  -34.7420 C   0  0  0  0  0  0  0  0  0  0  0  0
  -30.9325   25.9647  -35.7346 C   0  0  0  0  0  0  0  0  0  0  0  0
  -31.2047   24.9674  -36.6397 C   0  0  0  0  0  0  0  0  0  0  0  0
  -32.3720   25.2877  -37.8998 Cl  0  0  0  0  0  0  0  0  0  0  0  0
  -30.5946   23.7338  -36.5877 C   0  0  0  0  0  0  0  0  0  0  0  0
  -29.6845   23.5358  -35.5743 C   0  0  0  0  0  0  0  0  0  0  0  0
  -27.3863   23.3006  -33.8013 C   0  0  0  0  0  0  0  0  0  0  0  0
  -26.5093   23.3553  -32.2471 S   0  0  0  0  0  0  0  0  0  0  0  0
  -26.4518   24.0376  -28.2175 C   0  0  0  0  0  0  0  0  0  0  0  0
  -25.3927   23.7875  -27.3727 C   0  0  0  0  0  0  0  0  0  0  0  0
  1  2  1  0
  2  3  2  0
  3  4  1  0
  4  5  2  0
  5  6  1  0
  6  7  1  0
  7  8  2  0
  8  9  1  0
  9 10  1  0
 10 11  2  0
 11 12  1  0
 12 13  2  0
 13 14  1  0
 13 15  1  0
 15 16  2  0
  9 17  2  0
 17 18  1  0
  5 19  1  0
 19 20  2  0
 20  2  1  0
 18  7  1  0
 16 10  1  0
M  END
$$$$
