
     RDKit          3D

 30 33  0  0  0  0  0  0  0  0999 V2000
  -21.8192   37.9679  -23.5040 C   0  0  0  0  0  0  0  0  0  0  0  0
  -21.1908   36.8095  -22.9269 N   0  0  0  0  0  0  0  0  0  0  0  0
  -20.0450   36.8527  -22.0914 C   0  0  0  0  0  0  0  0  0  0  0  0
  -19.4761   38.0227  -21.7207 N   0  0  0  0  0  0  0  0  0  0  0  0
  -18.4129   38.1020  -20.9345 C   0  0  0  0  0  0  0  0  0  0  0  0
  -17.7819   39.3060  -20.5401 N   0  0  0  0  0  0  0  0  0  0  0  0
  -18.3406   40.5518  -20.9962 C   0  0  0  0  0  0  0  0  0  0  0  0
  -19.3734   40.6741  -21.9222 C   0  0  0  0  0  0  0  0  0  0  0  0
  -19.5634   41.9741  -22.0703 N   0  0  0  0  0  0  0  0  0  0  0  0
  -18.7168   42.6631  -21.2972 N   0  0  0  0  0  0  0  0  0  0  0  0
  -18.6902   44.0943  -21.2615 C   0  0  1  0  0  0  0  0  0  0  0  0
  -18.7804   44.7215  -22.6531 C   0  0  0  0  0  0  0  0  0  0  0  0
  -18.5950   46.2215  -22.4304 C   0  0  0  0  0  0  0  0  0  0  0  0
  -19.7378   46.7644  -21.7496 N   0  0  0  0  0  0  0  0  0  0  0  0
  -20.5587   47.4332  -22.7701 C   0  0  0  0  0  0  0  0  0  0  0  0
  -19.9810   48.7109  -23.3093 C   0  0  0  0  0  0  0  0  0  0  0  0
  -21.2970   49.2293  -23.3346 O   0  0  0  0  0  0  0  0  0  0  0  0
  -21.5628   48.4220  -22.2244 C   0  0  0  0  0  0  0  0  0  0  0  0
  -20.5842   45.7651  -21.1619 C   0  0  0  0  0  0  0  0  0  0  0  0
  -19.8765   44.6472  -20.4882 C   0  0  2  0  0  0  0  0  0  0  0  0
  -19.5605   44.9123  -19.1632 F   0  0  0  0  0  0  0  0  0  0  0  0
  -17.9490   41.8189  -20.6207 C   0  0  0  0  0  0  0  0  0  0  0  0
  -16.6682   42.1948  -19.4558 Cl  0  0  0  0  0  0  0  0  0  0  0  0
  -17.8578   36.9449  -20.4706 N   0  0  0  0  0  0  0  0  0  0  0  0
  -18.3566   35.7487  -20.7892 C   0  0  0  0  0  0  0  0  0  0  0  0
  -19.4757   35.6873  -21.6176 C   0  0  0  0  0  0  0  0  0  0  0  0
  -20.0564   34.3712  -21.9974 C   0  0  0  0  0  0  0  0  0  0  0  0
  -19.9370   34.2492  -23.3697 F   0  0  0  0  0  0  0  0  0  0  0  0
  -19.2968   33.3617  -21.3904 F   0  0  0  0  0  0  0  0  0  0  0  0
  -21.3435   34.2886  -21.5563 F   0  0  0  0  0  0  0  0  0  0  0  0
  1  2  1  0
  2  3  1  0
  3  4  2  0
  4  5  1  0
  5  6  1  0
  6  7  1  0
  7  8  1  0
  8  9  2  0
  9 10  1  0
 11 10  1  6
 11 12  1  0
 12 13  1  0
 13 14  1  0
 14 15  1  0
 15 16  1  0
 16 17  1  0
 17 18  1  0
 14 19  1  0
 19 20  1  0
 20 21  1  1
 10 22  1  0
 22 23  1  0
  5 24  2  0
 24 25  1  0
 25 26  2  0
 26 27  1  0
 27 28  1  0
 27 29  1  0
 27 30  1  0
 26  3  1  0
 22  7  2  0
 20 11  1  0
 18 15  1  0
M  END
$$$$
