
     RDKit          3D

 42 45  0  0  0  0  0  0  0  0999 V2000
  -28.4899   11.3751  -20.4785 C   0  0  0  0  0  0  0  0  0  0  0  0
  -29.6389   10.7040  -21.2038 C   0  0  0  0  0  0  0  0  0  0  0  0
  -29.0645    9.8446  -22.2917 C   0  0  0  0  0  0  0  0  0  0  0  0
  -30.4266    9.9096  -20.1886 C   0  0  0  0  0  0  0  0  0  0  0  0
  -30.9897   10.7964  -19.0997 C   0  0  2  0  0  0  0  0  0  0  0  0
  -31.8336    9.9272  -18.2760 N   0  0  0  0  0  0  0  0  0  0  0  0
  -32.2504   10.2791  -16.9755 C   0  0  0  0  0  0  0  0  0  0  0  0
  -31.9013   11.3481  -16.4343 O   0  0  0  0  0  0  0  0  0  0  0  0
  -33.1022    9.3766  -16.2572 C   0  0  0  0  0  0  0  0  0  0  0  0
  -33.6695    8.1893  -16.5794 C   0  0  0  0  0  0  0  0  0  0  0  0
  -34.4405    7.5551  -15.6796 C   0  0  0  0  0  0  0  0  0  0  0  0
  -35.1013    6.3158  -15.8587 C   0  0  0  0  0  0  0  0  0  0  0  0
  -35.8582    5.7647  -14.8777 C   0  0  0  0  0  0  0  0  0  0  0  0
  -36.0404    6.3485  -13.6631 C   0  0  0  0  0  0  0  0  0  0  0  0
  -35.4116    7.5575  -13.4522 C   0  0  0  0  0  0  0  0  0  0  0  0
  -34.6377    8.1169  -14.4608 C   0  0  0  0  0  0  0  0  0  0  0  0
  -33.6886    9.6307  -14.5670 S   0  0  0  0  0  0  0  0  0  0  0  0
  -31.8422   11.8802  -19.6175 C   0  0  0  0  0  0  0  0  0  0  0  0
  -33.0486   12.0016  -19.2582 O   0  0  0  0  0  0  0  0  0  0  0  0
  -31.3364   12.8331  -20.5427 N   0  0  0  0  0  0  0  0  0  0  0  0
  -29.8993   12.9637  -20.6905 C   0  0  0  0  0  0  0  0  0  0  0  0
  -29.5130   13.0697  -22.1252 C   0  0  0  0  0  0  0  0  0  0  0  0
  -30.3609   14.0476  -22.7854 N   0  0  0  0  0  0  0  0  0  0  0  0
  -29.9320   15.2413  -23.3769 C   0  0  0  0  0  0  0  0  0  0  0  0
  -30.3848   16.3274  -22.8755 O   0  0  0  0  0  0  0  0  0  0  0  0
  -29.0183   15.3405  -24.5102 C   0  0  2  0  0  0  0  0  0  0  0  0
  -27.5997   14.8854  -24.1466 C   0  0  0  0  0  0  0  0  0  0  0  0
  -27.5608   13.5238  -23.9079 O   0  0  0  0  0  0  0  0  0  0  0  0
  -28.8350   16.7488  -24.8991 N   0  0  0  0  0  0  0  0  0  0  0  0
  -27.6817   17.5118  -23.8681 S   0  0  0  0  0  6  0  0  0  0  0  0
  -27.8629   17.0714  -22.4325 O   0  0  0  0  0  0  0  0  0  0  0  0
  -27.8481   19.0033  -23.8747 O   0  0  0  0  0  0  0  0  0  0  0  0
  -26.0274   17.1998  -24.3916 C   0  0  0  0  0  0  0  0  0  0  0  0
  -25.0028   18.0621  -24.1026 C   0  0  0  0  0  0  0  0  0  0  0  0
  -23.7295   17.7871  -24.5207 C   0  0  0  0  0  0  0  0  0  0  0  0
  -23.4771   16.6248  -25.2429 C   0  0  0  0  0  0  0  0  0  0  0  0
  -21.8453   16.2863  -25.7706 Cl  0  0  0  0  0  0  0  0  0  0  0  0
  -24.5127   15.7639  -25.5290 C   0  0  0  0  0  0  0  0  0  0  0  0
  -25.7942   16.0499  -25.1030 C   0  0  0  0  0  0  0  0  0  0  0  0
  -27.0402   14.9108  -25.5128 Cl  0  0  0  0  0  0  0  0  0  0  0  0
  -31.7820   13.6636  -22.7816 C   0  0  0  0  0  0  0  0  0  0  0  0
  -32.2415   13.6210  -21.3194 C   0  0  0  0  0  0  0  0  0  0  0  0
  1  2  1  0
  2  3  1  0
  2  4  1  0
  5  4  1  6
  5  6  1  0
  6  7  1  0
  7  8  2  0
  7  9  1  0
  9 10  2  0
 10 11  1  0
 11 12  2  0
 12 13  1  0
 13 14  2  0
 14 15  1  0
 15 16  2  0
 16 17  1  0
  5 18  1  0
 18 19  2  0
 18 20  1  0
 20 21  1  0
 21 22  1  0
 22 23  1  0
 23 24  1  0
 24 25  2  0
 24 26  1  0
 26 27  1  1
 27 28  1  0
 26 29  1  0
 29 30  1  0
 30 31  2  0
 30 32  2  0
 30 33  1  0
 33 34  2  0
 34 35  1  0
 35 36  2  0
 36 37  1  0
 36 38  1  0
 38 39  2  0
 39 40  1  0
 23 41  1  0
 41 42  1  0
 17  9  1  0
 42 20  1  0
 16 11  1  0
 39 33  1  0
M  END
$$$$
