
     RDKit          3D

 16 18  0  0  0  0  0  0  0  0999 V2000
  -17.1484   45.6351  -18.9949 C   0  0  0  0  0  0  0  0  0  0  0  0
  -16.5334   44.4810  -19.4672 O   0  0  0  0  0  0  0  0  0  0  0  0
  -17.0904   43.5766  -20.3437 C   0  0  0  0  0  0  0  0  0  0  0  0
  -16.9282   42.2178  -20.1450 C   0  0  0  0  0  0  0  0  0  0  0  0
  -17.4879   41.3051  -21.0259 C   0  0  0  0  0  0  0  0  0  0  0  0
  -18.2142   41.7264  -22.1131 C   0  0  0  0  0  0  0  0  0  0  0  0
  -18.3996   43.0638  -22.3478 C   0  0  0  0  0  0  0  0  0  0  0  0
  -17.8175   43.9511  -21.4338 C   0  0  0  0  0  0  0  0  0  0  0  0
  -19.1352   43.6045  -23.4449 N   0  0  0  0  0  0  0  0  0  0  0  0
  -19.7739   42.8361  -24.4408 C   0  0  0  0  0  0  0  0  0  0  0  0
  -20.4721   43.4718  -25.4780 C   0  0  0  0  0  0  0  0  0  0  0  0
  -21.1169   42.7968  -26.4797 C   0  0  0  0  0  0  0  0  0  0  0  0
  -21.0990   41.4227  -26.5003 C   0  0  0  0  0  0  0  0  0  0  0  0
  -20.4089   40.7921  -25.4754 C   0  0  0  0  0  0  0  0  0  0  0  0
  -19.7733   41.4740  -24.4873 C   0  0  0  0  0  0  0  0  0  0  0  0
  -18.9310   40.5432  -23.2418 S   0  0  0  0  0  0  0  0  0  0  0  0
  1  2  1  0
  2  3  1  0
  3  4  2  0
  4  5  1  0
  5  6  2  0
  6  7  1  0
  7  8  2  0
  7  9  1  0
  9 10  1  0
 10 11  2  0
 11 12  1  0
 12 13  2  0
 13 14  1  0
 14 15  2  0
 15 16  1  0
  8  3  1  0
 15 10  1  0
 16  6  1  0
M  END
$$$$
