
     RDKit          3D

 21 22  0  0  0  0  0  0  0  0999 V2000
  -22.7967   20.1179  -31.2052 N   0  0  0  0  0  0  0  0  0  0  0  0
  -21.9681   19.2006  -32.4079 S   0  0  0  0  0  6  0  0  0  0  0  0
  -20.9917   20.0769  -33.1107 O   0  0  0  0  0  0  0  0  0  0  0  0
  -22.9138   18.5831  -33.3942 O   0  0  0  0  0  0  0  0  0  0  0  0
  -21.0736   17.9433  -31.5737 C   0  0  0  0  0  0  0  0  0  0  0  0
  -21.4498   16.6289  -31.7236 C   0  0  0  0  0  0  0  0  0  0  0  0
  -20.7919   15.5951  -31.0982 C   0  0  0  0  0  0  0  0  0  0  0  0
  -19.7023   15.8541  -30.2773 C   0  0  0  0  0  0  0  0  0  0  0  0
  -18.9975   14.8191  -29.6152 N   0  0  0  0  0  0  0  0  0  0  0  0
  -17.5719   14.7430  -29.8418 C   0  0  0  0  0  0  0  0  0  0  0  0
  -16.9466   15.8249  -29.9371 O   0  0  0  0  0  0  0  0  0  0  0  0
  -16.9158   13.5037  -29.9506 N   0  0  0  0  0  0  0  0  0  0  0  0
  -15.6229   13.2128  -29.4779 C   0  0  0  0  0  0  0  0  0  0  0  0
  -15.3228   12.3103  -28.5071 C   0  0  0  0  0  0  0  0  0  0  0  0
  -13.9978   12.0943  -28.1074 C   0  0  0  0  0  0  0  0  0  0  0  0
  -12.9653   12.7831  -28.6798 C   0  0  0  0  0  0  0  0  0  0  0  0
  -11.6738   12.5570  -28.2742 F   0  0  0  0  0  0  0  0  0  0  0  0
  -13.2533   13.6964  -29.6602 C   0  0  0  0  0  0  0  0  0  0  0  0
  -14.5502   13.8969  -30.0402 C   0  0  0  0  0  0  0  0  0  0  0  0
  -19.3308   17.1758  -30.1318 C   0  0  0  0  0  0  0  0  0  0  0  0
  -19.9976   18.1999  -30.7631 C   0  0  0  0  0  0  0  0  0  0  0  0
  1  2  1  0
  2  3  2  0
  2  4  2  0
  2  5  1  0
  5  6  2  0
  6  7  1  0
  7  8  2  0
  8  9  1  0
  9 10  1  0
 10 11  2  0
 10 12  1  0
 12 13  1  0
 13 14  2  0
 14 15  1  0
 15 16  2  0
 16 17  1  0
 16 18  1  0
 18 19  2  0
  8 20  1  0
 20 21  2  0
 21  5  1  0
 19 13  1  0
M  END
$$$$
