
     RDKit          3D

 30 33  0  0  0  0  0  0  0  0999 V2000
  -28.0294   13.9961  -21.8112 O   0  0  0  0  0  0  0  0  0  0  0  0
  -28.0369   15.2114  -21.4880 C   0  0  0  0  0  0  0  0  0  0  0  0
  -29.0825   15.6564  -20.6516 N   0  0  0  0  0  0  0  0  0  0  0  0
  -30.4927   15.4008  -20.8743 C   0  0  0  0  0  0  0  0  0  0  0  0
  -30.9537   14.0808  -20.4593 C   0  0  0  0  0  0  0  0  0  0  0  0
  -32.2055   13.6599  -20.8573 C   0  0  0  0  0  0  0  0  0  0  0  0
  -32.6937   12.4255  -20.5062 C   0  0  0  0  0  0  0  0  0  0  0  0
  -31.9090   11.6004  -19.7416 C   0  0  0  0  0  0  0  0  0  0  0  0
  -32.5167   10.0195  -19.2828 S   0  0  0  0  0  6  0  0  0  0  0  0
  -31.3808    9.0580  -19.1282 O   0  0  0  0  0  0  0  0  0  0  0  0
  -33.4665    9.5694  -20.3612 O   0  0  0  0  0  0  0  0  0  0  0  0
  -33.4221   10.1159  -17.7876 C   0  0  0  0  0  0  0  0  0  0  0  0
  -34.7617   10.3927  -17.8546 C   0  0  0  0  0  0  0  0  0  0  0  0
  -35.5454   10.4862  -16.7296 C   0  0  0  0  0  0  0  0  0  0  0  0
  -36.8828   10.7614  -16.7766 F   0  0  0  0  0  0  0  0  0  0  0  0
  -34.9223   10.2870  -15.5021 C   0  0  0  0  0  0  0  0  0  0  0  0
  -33.5903   10.0098  -15.4025 C   0  0  0  0  0  0  0  0  0  0  0  0
  -32.9946    9.8180  -14.2037 F   0  0  0  0  0  0  0  0  0  0  0  0
  -32.8412    9.9259  -16.5697 C   0  0  0  0  0  0  0  0  0  0  0  0
  -30.6614   11.9807  -19.3265 C   0  0  0  0  0  0  0  0  0  0  0  0
  -30.1823   13.2392  -19.6935 C   0  0  0  0  0  0  0  0  0  0  0  0
  -26.9611   16.0443  -22.0109 C   0  0  0  0  0  0  0  0  0  0  0  0
  -25.6297   15.7489  -21.7142 C   0  0  0  0  0  0  0  0  0  0  0  0
  -24.6271   16.5459  -22.2165 C   0  0  0  0  0  0  0  0  0  0  0  0
  -24.9319   17.6397  -23.0150 C   0  0  0  0  0  0  0  0  0  0  0  0
  -24.1982   18.5782  -23.6356 N   0  0  0  0  0  0  0  0  0  0  0  0
  -24.9744   19.4472  -24.3045 C   0  0  0  0  0  0  0  0  0  0  0  0
  -26.2681   19.0261  -24.0886 C   0  0  0  0  0  0  0  0  0  0  0  0
  -26.2131   17.9148  -23.2940 N   0  0  0  0  0  0  0  0  0  0  0  0
  -27.1828   17.1415  -22.8063 C   0  0  0  0  0  0  0  0  0  0  0  0
  1  2  2  0
  2  3  1  0
  3  4  1  0
  4  5  1  0
  5  6  2  0
  6  7  1  0
  7  8  2  0
  8  9  1  0
  9 10  2  0
  9 11  2  0
  9 12  1  0
 12 13  2  0
 13 14  1  0
 14 15  1  0
 14 16  2  0
 16 17  1  0
 17 18  1  0
 17 19  2  0
  8 20  1  0
 20 21  2  0
  2 22  1  0
 22 23  1  0
 23 24  2  0
 24 25  1  0
 25 26  2  0
 26 27  1  0
 27 28  2  0
 28 29  1  0
 29 30  1  0
 21  5  1  0
 30 22  2  0
 19 12  1  0
 29 25  1  0
M  END
$$$$
