
     RDKit          3D

 22 23  0  0  0  0  0  0  0  0999 V2000
  -22.1297   13.5204  -31.1778 C   0  0  0  0  0  0  0  0  0  0  0  0
  -21.4628   14.8539  -31.4382 C   0  0  2  0  0  0  0  0  0  0  0  0
  -20.8932   15.3596  -30.2345 N   0  0  0  0  0  0  0  0  0  0  0  0
  -19.9195   16.3906  -30.4077 C   0  0  0  0  0  0  0  0  0  0  0  0
  -18.5973   15.8203  -29.9543 C   0  0  0  0  0  0  0  0  0  0  0  0
  -18.1133   16.0931  -28.6993 C   0  0  0  0  0  0  0  0  0  0  0  0
  -16.9032   15.5573  -28.3156 C   0  0  0  0  0  0  0  0  0  0  0  0
  -16.1568   14.7535  -29.1493 C   0  0  0  0  0  0  0  0  0  0  0  0
  -14.9474   14.2097  -28.7845 O   0  0  0  0  0  0  0  0  0  0  0  0
  -14.7910   12.8101  -28.7874 C   0  0  0  0  0  0  0  0  0  0  0  0
  -13.4137   12.4707  -28.3716 C   0  0  0  0  0  0  0  0  0  0  0  0
  -12.5502   11.7244  -29.1566 C   0  0  0  0  0  0  0  0  0  0  0  0
  -11.2933   11.4461  -28.7155 C   0  0  0  0  0  0  0  0  0  0  0  0
  -10.9026   11.9149  -27.4899 C   0  0  0  0  0  0  0  0  0  0  0  0
  -11.7199   12.6605  -26.6699 C   0  0  0  0  0  0  0  0  0  0  0  0
  -11.2904   13.1063  -25.4588 F   0  0  0  0  0  0  0  0  0  0  0  0
  -12.9900   12.9339  -27.1310 C   0  0  0  0  0  0  0  0  0  0  0  0
  -16.6594   14.4925  -30.4021 C   0  0  0  0  0  0  0  0  0  0  0  0
  -17.8615   15.0199  -30.7944 C   0  0  0  0  0  0  0  0  0  0  0  0
  -22.4786   15.7948  -31.9363 C   0  0  0  0  0  0  0  0  0  0  0  0
  -22.2193   17.1785  -31.9450 N   0  0  0  0  0  0  0  0  0  0  0  0
  -23.5707   15.3592  -32.3507 O   0  0  0  0  0  0  0  0  0  0  0  0
  2  1  1  1
  2  3  1  0
  3  4  1  0
  4  5  1  0
  5  6  2  0
  6  7  1  0
  7  8  2  0
  8  9  1  0
  9 10  1  0
 10 11  1  0
 11 12  2  0
 12 13  1  0
 13 14  2  0
 14 15  1  0
 15 16  1  0
 15 17  2  0
  8 18  1  0
 18 19  2  0
  2 20  1  0
 20 21  1  0
 20 22  2  0
 19  5  1  0
 17 11  1  0
M  END
$$$$
