
     RDKit          3D

  4  3  0  0  0  0  0  0  0  0999 V2000
  -19.6388   31.5511  -20.5746 C   0  0  0  0  0  0  0  0  0  0  0  0
  -20.5107   32.7037  -20.2505 C   0  0  0  0  0  0  0  0  0  0  0  0
  -21.6736   32.5034  -19.4536 N   0  0  0  0  0  0  0  0  0  0  0  0
  -20.2874   33.8704  -20.6403 O   0  0  0  0  0  0  0  0  0  0  0  0
  1  2  1  0
  2  3  1  0
  2  4  2  0
M  END
$$$$
