
     RDKit          3D

 19 21  0  0  0  0  0  0  0  0999 V2000
  -18.4338   38.9457  -20.7931 C   0  0  0  0  0  0  0  0  0  0  0  0
  -19.1863   40.1639  -21.2073 C   0  0  0  0  0  0  0  0  0  0  0  0
  -18.6157   41.4070  -20.5971 C   0  0  0  0  0  0  0  0  0  0  0  0
  -18.8451   41.6879  -19.4044 O   0  0  0  0  0  0  0  0  0  0  0  0
  -17.8025   42.3009  -21.3439 N   0  0  0  0  0  0  0  0  0  0  0  0
  -17.2033   43.4880  -20.7924 C   0  0  0  0  0  0  0  0  0  0  0  0
  -15.8973   43.2339  -20.1106 C   0  0  0  0  0  0  0  0  0  0  0  0
  -15.5996   44.3392  -19.1479 C   0  0  2  0  0  0  0  0  0  0  0  0
  -15.2451   45.6536  -19.7832 C   0  0  0  0  0  0  0  0  0  0  0  0
  -13.8116   45.3634  -20.2544 C   0  0  0  0  0  0  0  0  0  0  0  0
  -13.2859   44.6769  -19.0460 C   0  0  0  0  0  0  0  0  0  0  0  0
  -12.0134   44.5656  -18.5287 C   0  0  0  0  0  0  0  0  0  0  0  0
  -11.7604   43.8566  -17.3571 C   0  0  0  0  0  0  0  0  0  0  0  0
  -12.8000   43.2452  -16.6866 C   0  0  0  0  0  0  0  0  0  0  0  0
  -14.0823   43.3634  -17.2172 C   0  0  0  0  0  0  0  0  0  0  0  0
  -14.3359   44.0640  -18.3762 C   0  0  0  0  0  0  0  0  0  0  0  0
  -14.9741   42.6167  -16.2963 C   0  0  0  0  0  0  0  0  0  0  0  0
  -14.1866   42.6334  -15.0040 C   0  0  0  0  0  0  0  0  0  0  0  0
  -12.8535   42.4793  -15.5092 O   0  0  0  0  0  0  0  0  0  0  0  0
  1  2  1  0
  2  3  1  0
  3  4  2  0
  3  5  1  0
  5  6  1  0
  6  7  1  0
  8  7  1  6
  8  9  1  0
  9 10  1  0
 10 11  1  0
 11 12  2  0
 12 13  1  0
 13 14  2  0
 14 15  1  0
 15 16  2  0
 15 17  1  0
 17 18  1  0
 18 19  1  0
 16  8  1  0
 16 11  1  0
 19 14  1  0
M  END
$$$$
