
     RDKit          3D

 43 43  0  0  0  0  0  0  0  0999 V2000
  -20.8011   47.1640  -23.1669 C   0  0  0  0  0  0  0  0  0  0  0  0
  -19.8577   46.4580  -22.4538 C   0  0  0  0  0  0  0  0  0  0  0  0
  -18.7244   45.8812  -23.1892 C   0  0  0  0  0  0  0  0  0  0  0  0
  -18.5855   44.4601  -23.1514 N   0  0  0  0  0  0  0  0  0  0  0  0
  -19.0629   43.7332  -21.9870 C   0  0  0  0  0  0  0  0  0  0  0  0
  -18.2635   43.7218  -20.9044 C   0  0  0  0  0  0  0  0  0  0  0  0
  -17.0419   44.4263  -20.8617 O   0  0  0  0  0  0  0  0  0  0  0  0
  -18.6930   42.9947  -19.8516 C   0  0  0  0  0  0  0  0  0  0  0  0
  -19.9307   42.2750  -19.8744 C   0  0  0  0  0  0  0  0  0  0  0  0
  -20.7554   42.2941  -20.9772 C   0  0  0  0  0  0  0  0  0  0  0  0
  -22.0388   41.5873  -20.9994 O   0  0  0  0  0  0  0  0  0  0  0  0
  -20.3267   43.0255  -22.0710 C   0  0  0  0  0  0  0  0  0  0  0  0
  -20.7432   43.2000  -23.4834 C   0  0  0  0  0  0  0  0  0  0  0  0
  -22.0584   42.8305  -24.0173 C   0  0  1  0  0  0  0  0  0  0  0  0
  -22.6754   43.9963  -24.8407 C   0  0  0  0  0  0  0  0  0  0  0  0
  -21.9243   41.6443  -24.9882 C   0  0  0  0  0  0  0  0  0  0  0  0
  -22.9853   40.5788  -24.6516 C   0  0  2  0  0  0  0  0  0  0  0  0
  -23.6090   40.8033  -23.4578 O   0  0  0  0  0  0  0  0  0  0  0  0
  -24.9074   41.2649  -23.6879 C   0  0  0  0  0  0  0  0  0  0  0  0
  -22.3753   39.2732  -24.9258 C   0  0  2  0  0  0  0  0  0  0  0  0
  -22.8529   38.7109  -26.1480 O   0  0  0  0  0  0  0  0  0  0  0  0
  -22.5247   38.1760  -23.9096 C   0  0  1  0  0  0  0  0  0  0  0  0
  -24.0732   38.0058  -23.7676 C   0  0  0  0  0  0  0  0  0  0  0  0
  -21.9347   36.8774  -24.4279 C   0  0  0  0  0  0  0  0  0  0  0  0
  -20.9394   36.0899  -24.2874 C   0  0  0  0  0  0  0  0  0  0  0  0
  -20.6787   34.7625  -25.0754 C   0  0  0  0  0  0  0  0  0  0  0  0
  -19.7374   36.0422  -23.3623 C   0  0  2  0  0  0  0  0  0  0  0  0
  -20.1930   35.4960  -22.0981 O   0  0  0  0  0  0  0  0  0  0  0  0
  -19.7703   34.2908  -21.5985 C   0  0  0  0  0  0  0  0  0  0  0  0
  -20.2931   33.8444  -20.3588 N   0  0  0  0  0  0  0  0  0  0  0  0
  -18.9336   33.6266  -22.2611 O   0  0  0  0  0  0  0  0  0  0  0  0
  -18.8209   37.1094  -23.1305 C   0  0  1  0  0  0  0  0  0  0  0  0
  -17.6644   36.8743  -23.8906 O   0  0  0  0  0  0  0  0  0  0  0  0
  -16.4616   36.8427  -23.3423 C   0  0  0  0  0  0  0  0  0  0  0  0
  -19.1526   38.5026  -23.4907 C   0  0  0  0  0  0  0  0  0  0  0  0
  -19.5905   39.4154  -22.6397 C   0  0  0  0  0  0  0  0  0  0  0  0
  -19.8491   39.2784  -21.2441 C   0  0  0  0  0  0  0  0  0  0  0  0
  -20.0719   39.1712  -19.9990 C   0  0  0  0  0  0  0  0  0  0  0  0
  -20.7973   37.8561  -19.4970 C   0  0  0  0  0  0  0  0  0  0  0  0
  -19.9936   39.9502  -18.7205 C   0  0  0  0  0  0  0  0  0  0  0  0
  -19.9682   39.4041  -17.5807 O   0  0  0  0  0  0  0  0  0  0  0  0
  -19.9386   41.4279  -18.6638 N   0  0  0  0  0  0  0  0  0  0  0  0
  -20.5251   40.8600  -22.8841 Cl  0  0  0  0  0  0  0  0  0  0  0  0
  1  2  2  0
  2  3  1  0
  3  4  1  0
  4  5  1  0
  5  6  2  0
  6  7  1  0
  6  8  1  0
  8  9  2  0
  9 10  1  0
 10 11  1  0
 10 12  2  0
 12 13  1  0
 13 14  1  0
 14 15  1  6
 14 16  1  0
 16 17  1  0
 17 18  1  1
 18 19  1  0
 17 20  1  0
 20 21  1  6
 20 22  1  0
 22 23  1  6
 22 24  1  0
 24 25  2  0
 25 26  1  0
 25 27  1  0
 27 28  1  1
 28 29  1  0
 29 30  1  0
 29 31  2  0
 27 32  1  0
 32 33  1  6
 33 34  1  0
 32 35  1  0
 35 36  2  0
 36 37  1  0
 37 38  2  0
 38 39  1  0
 38 40  1  0
 40 41  2  0
 40 42  1  0
 12  5  1  0
 42  9  1  0
M  END
$$$$
