
     RDKit          3D

 21 22  0  0  0  0  0  0  0  0999 V2000
  -18.2579   41.3089  -23.6845 O   0  0  0  0  0  0  0  0  0  0  0  0
  -17.6493   40.7795  -22.7217 C   0  0  0  0  0  0  0  0  0  0  0  0
  -18.1845   39.5862  -22.0274 C   0  0  0  0  0  0  0  0  0  0  0  0
  -18.7610   38.6569  -22.7547 C   0  0  0  0  0  0  0  0  0  0  0  0
  -19.3596   37.4331  -22.1843 C   0  0  0  0  0  0  0  0  0  0  0  0
  -20.6259   37.3917  -21.6547 C   0  0  0  0  0  0  0  0  0  0  0  0
  -21.1535   36.2224  -21.1278 C   0  0  0  0  0  0  0  0  0  0  0  0
  -20.3820   35.0741  -21.1387 C   0  0  0  0  0  0  0  0  0  0  0  0
  -20.9344   33.9048  -20.6018 O   0  0  0  0  0  0  0  0  0  0  0  0
  -19.1056   35.0718  -21.6608 C   0  0  0  0  0  0  0  0  0  0  0  0
  -18.3942   33.8944  -21.6393 O   0  0  0  0  0  0  0  0  0  0  0  0
  -18.6269   36.2526  -22.1707 C   0  0  0  0  0  0  0  0  0  0  0  0
  -16.4531   41.3584  -22.3338 O   0  0  0  0  0  0  0  0  0  0  0  0
  -16.3555   42.6943  -21.8927 C   0  0  0  0  0  0  0  0  0  0  0  0
  -16.4781   42.8623  -20.4161 C   0  0  0  0  0  0  0  0  0  0  0  0
  -15.7963   44.1349  -20.0495 C   0  0  0  0  0  0  0  0  0  0  0  0
  -14.4231   44.2269  -19.9516 C   0  0  0  0  0  0  0  0  0  0  0  0
  -13.8489   45.4326  -19.6083 C   0  0  0  0  0  0  0  0  0  0  0  0
  -14.5897   46.5662  -19.3547 C   0  0  0  0  0  0  0  0  0  0  0  0
  -15.9573   46.4612  -19.4557 C   0  0  0  0  0  0  0  0  0  0  0  0
  -16.5526   45.2613  -19.7986 C   0  0  0  0  0  0  0  0  0  0  0  0
  1  2  2  0
  2  3  1  0
  3  4  2  0
  4  5  1  0
  5  6  2  0
  6  7  1  0
  7  8  2  0
  8  9  1  0
  8 10  1  0
 10 11  1  0
 10 12  2  0
  2 13  1  0
 13 14  1  0
 14 15  1  0
 15 16  1  0
 16 17  2  0
 17 18  1  0
 18 19  2  0
 19 20  1  0
 20 21  2  0
 12  5  1  0
 21 16  1  0
M  END
$$$$
