
     RDKit          3D

 22 22  0  0  0  0  0  0  0  0999 V2000
  -18.5389   30.7972  -18.8375 C   0  0  0  0  0  0  0  0  0  0  0  0
  -19.8020   30.9369  -19.5352 N   0  0  0  0  0  0  0  0  0  0  0  0
  -20.7144   29.8207  -19.5535 C   0  0  0  0  0  0  0  0  0  0  0  0
  -20.1004   32.1768  -20.1817 C   0  0  0  0  0  0  0  0  0  0  0  0
  -21.3790   32.4541  -20.6116 C   0  0  0  0  0  0  0  0  0  0  0  0
  -21.6660   33.6731  -21.2457 C   0  0  0  0  0  0  0  0  0  0  0  0
  -20.7043   34.6212  -21.4598 C   0  0  0  0  0  0  0  0  0  0  0  0
  -20.9917   35.8872  -22.1157 C   0  0  0  0  0  0  0  0  0  0  0  0
  -20.3194   36.3025  -23.0988 O   0  0  0  0  0  0  0  0  0  0  0  0
  -22.0500   36.7216  -21.6775 N   0  0  0  0  0  0  0  0  0  0  0  0
  -22.2430   38.0450  -22.2473 C   0  0  0  0  0  0  0  0  0  0  0  0
  -21.8918   39.1555  -21.3185 C   0  0  0  0  0  0  0  0  0  0  0  0
  -20.5357   39.7085  -21.6577 C   0  0  0  0  0  0  0  0  0  0  0  0
  -20.1840   40.9139  -20.8606 C   0  0  0  0  0  0  0  0  0  0  0  0
  -18.8309   41.4966  -21.2596 C   0  0  0  0  0  0  0  0  0  0  0  0
  -18.5871   42.8563  -20.6709 C   0  0  0  0  0  0  0  0  0  0  0  0
  -17.1729   42.9424  -20.2310 C   0  0  0  0  0  0  0  0  0  0  0  0
  -16.3592   42.0470  -20.5469 O   0  0  0  0  0  0  0  0  0  0  0  0
  -16.7517   44.0513  -19.4476 N   0  0  0  0  0  0  0  0  0  0  0  0
  -15.4566   44.2074  -19.1090 O   0  0  0  0  0  0  0  0  0  0  0  0
  -19.4201   34.3179  -21.0164 C   0  0  0  0  0  0  0  0  0  0  0  0
  -19.1211   33.1260  -20.3921 C   0  0  0  0  0  0  0  0  0  0  0  0
  1  2  1  0
  2  3  1  0
  2  4  1  0
  4  5  2  0
  5  6  1  0
  6  7  2  0
  7  8  1  0
  8  9  2  0
  8 10  1  0
 10 11  1  0
 11 12  1  0
 12 13  1  0
 13 14  1  0
 14 15  1  0
 15 16  1  0
 16 17  1  0
 17 18  2  0
 17 19  1  0
 19 20  1  0
  7 21  1  0
 21 22  2  0
 22  4  1  0
M  END
$$$$
