
     RDKit          3D

 13 14  0  0  0  0  0  0  0  0999 V2000
  -15.2907   -3.1934  -32.6866 O   0  0  0  0  0  0  0  0  0  0  0  0
  -14.6943   -1.9356  -32.8230 C   0  0  0  0  0  0  0  0  0  0  0  0
  -13.4503   -1.9077  -33.4157 C   0  0  0  0  0  0  0  0  0  0  0  0
  -12.5048   -3.6759  -34.0786 I   0  0  0  0  0  0  0  0  0  0  0  0
  -12.8526   -0.6723  -33.5554 C   0  0  0  0  0  0  0  0  0  0  0  0
  -13.4866    0.4733  -33.1156 C   0  0  0  0  0  0  0  0  0  0  0  0
  -12.5678    2.3563  -33.3323 I   0  0  0  0  0  0  0  0  0  0  0  0
  -14.7321    0.4459  -32.5222 C   0  0  0  0  0  0  0  0  0  0  0  0
  -15.3484    1.6057  -32.0892 C   0  0  0  0  0  0  0  0  0  0  0  0
  -16.5728    1.5014  -31.5150 C   0  0  0  0  0  0  0  0  0  0  0  0
  -17.1576    0.2502  -31.3834 C   0  0  0  0  0  0  0  0  0  0  0  0
  -16.5531   -0.8713  -31.8061 N   0  0  0  0  0  0  0  0  0  0  0  0
  -15.3261   -0.7920  -32.3846 C   0  0  0  0  0  0  0  0  0  0  0  0
  1  2  1  0
  2  3  2  0
  3  4  1  0
  3  5  1  0
  5  6  2  0
  6  7  1  0
  6  8  1  0
  8  9  2  0
  9 10  1  0
 10 11  2  0
 11 12  1  0
 12 13  2  0
 13  2  1  0
 13  8  1  0
M  END
$$$$
