
     RDKit          3D

 24 26  0  0  0  0  0  0  0  0999 V2000
  -15.1845   16.8292  -39.4881 C   0  0  0  0  0  0  0  0  0  0  0  0
  -14.3757   17.9294  -39.8321 O   0  0  0  0  0  0  0  0  0  0  0  0
  -13.6321   17.8676  -41.0197 C   0  0  0  0  0  0  0  0  0  0  0  0
  -12.9116   16.7380  -41.3424 C   0  0  0  0  0  0  0  0  0  0  0  0
  -12.1743   16.6549  -42.5030 C   0  0  0  0  0  0  0  0  0  0  0  0
  -12.1254   17.7029  -43.3953 C   0  0  0  0  0  0  0  0  0  0  0  0
  -11.3784   17.6568  -44.6007 N   0  0  0  0  0  0  0  0  0  0  0  0
  -11.8778   17.7531  -45.8213 N   0  0  0  0  0  0  0  0  0  0  0  0
  -10.8905   17.6707  -46.7455 C   0  0  0  0  0  0  0  0  0  0  0  0
  -11.0127   17.7323  -48.2212 C   0  0  0  0  0  0  0  0  0  0  0  0
  -11.8519   18.7850  -48.5369 F   0  0  0  0  0  0  0  0  0  0  0  0
   -9.7575   17.8981  -48.7549 F   0  0  0  0  0  0  0  0  0  0  0  0
  -11.5303   16.5172  -48.6688 F   0  0  0  0  0  0  0  0  0  0  0  0
   -9.7005   17.5134  -46.0671 C   0  0  0  0  0  0  0  0  0  0  0  0
  -10.0446   17.5093  -44.7311 C   0  0  0  0  0  0  0  0  0  0  0  0
   -9.1539   17.3709  -43.5850 C   0  0  0  0  0  0  0  0  0  0  0  0
   -8.1285   16.4252  -43.5939 C   0  0  0  0  0  0  0  0  0  0  0  0
   -7.2657   16.2546  -42.5454 C   0  0  0  0  0  0  0  0  0  0  0  0
   -7.4049   17.0452  -41.4255 C   0  0  0  0  0  0  0  0  0  0  0  0
   -6.2845   16.8097  -40.0875 Cl  0  0  0  0  0  0  0  0  0  0  0  0
   -8.4016   17.9813  -41.3885 C   0  0  0  0  0  0  0  0  0  0  0  0
   -9.2680   18.1475  -42.4501 C   0  0  0  0  0  0  0  0  0  0  0  0
  -12.8522   18.8285  -43.0591 C   0  0  0  0  0  0  0  0  0  0  0  0
  -13.5938   18.9246  -41.9013 C   0  0  0  0  0  0  0  0  0  0  0  0
  1  2  1  0
  2  3  1  0
  3  4  2  0
  4  5  1  0
  5  6  2  0
  6  7  1  0
  7  8  1  0
  8  9  2  0
  9 10  1  0
 10 11  1  0
 10 12  1  0
 10 13  1  0
  9 14  1  0
 14 15  2  0
 15 16  1  0
 16 17  2  0
 17 18  1  0
 18 19  2  0
 19 20  1  0
 19 21  1  0
 21 22  2  0
  6 23  1  0
 23 24  2  0
 24  3  1  0
 15  7  1  0
 22 16  1  0
M  END
$$$$
