
     RDKit          3D

 43 47  0  0  0  0  0  0  0  0999 V2000
  -21.2211   17.4755  -31.1202 C   0  0  0  0  0  0  0  0  0  0  0  0
  -22.5123   17.1936  -31.6508 N   0  0  0  0  0  0  0  0  0  0  0  0
  -23.6050   17.4742  -30.7890 C   0  0  0  0  0  0  0  0  0  0  0  0
  -24.4226   18.6759  -31.1701 C   0  0  0  0  0  0  0  0  0  0  0  0
  -23.9764   19.2867  -32.4006 N   0  0  0  0  0  0  0  0  0  0  0  0
  -23.8387   20.6726  -32.4948 C   0  0  0  0  0  0  0  0  0  0  0  0
  -23.8070   21.3684  -31.4465 O   0  0  0  0  0  0  0  0  0  0  0  0
  -23.7243   21.4008  -33.7576 C   0  0  0  0  0  0  0  0  0  0  0  0
  -24.3097   20.9060  -34.8945 C   0  0  0  0  0  0  0  0  0  0  0  0
  -24.1915   21.5923  -36.0724 C   0  0  0  0  0  0  0  0  0  0  0  0
  -23.4997   22.7787  -36.1731 C   0  0  0  0  0  0  0  0  0  0  0  0
  -23.4292   23.4089  -37.4554 N   0  0  0  0  0  0  0  0  0  0  0  0
  -22.5804   23.0948  -38.4443 N   0  0  0  0  0  0  0  0  0  0  0  0
  -22.7767   23.8843  -39.5112 C   0  0  0  0  0  0  0  0  0  0  0  0
  -22.0430   23.8352  -40.7691 C   0  0  0  0  0  0  0  0  0  0  0  0
  -22.5248   24.5101  -41.8787 C   0  0  0  0  0  0  0  0  0  0  0  0
  -21.8348   24.4696  -43.0827 C   0  0  0  0  0  0  0  0  0  0  0  0
  -20.6625   23.7603  -43.1963 C   0  0  0  0  0  0  0  0  0  0  0  0
  -19.9724   23.7422  -44.4723 C   0  0  0  0  0  0  0  0  0  0  0  0
  -20.2815   24.5267  -45.4036 O   0  0  0  0  0  0  0  0  0  0  0  0
  -18.9256   22.8546  -44.7431 O   0  0  0  0  0  0  0  0  0  0  0  0
  -20.1777   23.0890  -42.1025 C   0  0  0  0  0  0  0  0  0  0  0  0
  -20.8645   23.1239  -40.8881 C   0  0  0  0  0  0  0  0  0  0  0  0
  -23.8041   24.7256  -39.1480 C   0  0  0  0  0  0  0  0  0  0  0  0
  -24.2110   24.4155  -37.8419 C   0  0  0  0  0  0  0  0  0  0  0  0
  -25.2764   25.1082  -37.1285 C   0  0  0  0  0  0  0  0  0  0  0  0
  -26.5356   24.5387  -37.0111 C   0  0  0  0  0  0  0  0  0  0  0  0
  -27.5719   25.1578  -36.3361 C   0  0  0  0  0  0  0  0  0  0  0  0
  -28.9229   24.5131  -36.2308 C   0  0  0  0  0  0  0  0  0  0  0  0
  -29.4475   24.1999  -37.6096 C   0  0  0  0  0  0  0  0  0  0  0  0
  -29.8706   25.3061  -35.3896 C   0  0  0  0  0  0  0  0  0  0  0  0
  -28.7112   23.1618  -35.5418 C   0  0  0  0  0  0  0  0  0  0  0  0
  -27.3288   26.3834  -35.7655 C   0  0  0  0  0  0  0  0  0  0  0  0
  -26.0918   26.9947  -35.8533 C   0  0  0  0  0  0  0  0  0  0  0  0
  -25.9075   28.3147  -35.2104 C   0  0  0  0  0  0  0  0  0  0  0  0
  -25.6940   29.3404  -36.2966 C   0  0  0  0  0  0  0  0  0  0  0  0
  -24.7764   28.3247  -34.2075 C   0  0  0  0  0  0  0  0  0  0  0  0
  -27.1678   28.7166  -34.4488 C   0  0  0  0  0  0  0  0  0  0  0  0
  -25.0808   26.3504  -36.5334 C   0  0  0  0  0  0  0  0  0  0  0  0
  -22.9113   23.2789  -35.0353 C   0  0  0  0  0  0  0  0  0  0  0  0
  -23.0315   22.5779  -33.8297 C   0  0  0  0  0  0  0  0  0  0  0  0
  -23.6947   18.3638  -33.4877 C   0  0  0  0  0  0  0  0  0  0  0  0
  -22.6459   17.4221  -33.0261 C   0  0  0  0  0  0  0  0  0  0  0  0
  1  2  1  0
  2  3  1  0
  3  4  1  0
  4  5  1  0
  5  6  1  0
  6  7  2  0
  6  8  1  0
  8  9  2  0
  9 10  1  0
 10 11  2  0
 11 12  1  0
 12 13  1  0
 13 14  2  0
 14 15  1  0
 15 16  2  0
 16 17  1  0
 17 18  2  0
 18 19  1  0
 19 20  2  0
 19 21  1  0
 18 22  1  0
 22 23  2  0
 14 24  1  0
 24 25  2  0
 25 26  1  0
 26 27  2  0
 27 28  1  0
 28 29  1  0
 29 30  1  0
 29 31  1  0
 29 32  1  0
 28 33  2  0
 33 34  1  0
 34 35  1  0
 35 36  1  0
 35 37  1  0
 35 38  1  0
 34 39  2  0
 11 40  1  0
 40 41  2  0
  5 42  1  0
 42 43  1  0
 43  2  1  0
 41  8  1  0
 25 12  1  0
 39 26  1  0
 23 15  1  0
M  END
$$$$
