
     RDKit          3D

 24 26  0  0  0  0  0  0  0  0999 V2000
  -20.1434   34.9595  -21.0870 C   0  0  0  0  0  0  0  0  0  0  0  0
  -19.5057   36.2971  -21.2244 C   0  0  0  0  0  0  0  0  0  0  0  0
  -19.8810   37.0620  -22.2260 C   0  0  0  0  0  0  0  0  0  0  0  0
  -20.8863   36.6570  -23.1973 C   0  0  0  0  0  0  0  0  0  0  0  0
  -22.0607   37.0364  -23.0701 O   0  0  0  0  0  0  0  0  0  0  0  0
  -20.6124   35.8524  -24.2879 O   0  0  0  0  0  0  0  0  0  0  0  0
  -19.3351   38.3641  -22.4454 N   0  0  0  0  0  0  0  0  0  0  0  0
  -19.4192   39.6971  -22.9140 C   0  0  0  0  0  0  0  0  0  0  0  0
  -20.3151   40.3316  -23.5578 O   0  0  0  0  0  0  0  0  0  0  0  0
  -18.1083   40.0978  -22.3978 C   0  0  1  0  0  0  0  0  0  0  0  0
  -18.0954   41.0676  -21.3372 N   0  0  0  0  0  0  0  0  0  0  0  0
  -17.7927   42.4214  -21.6453 C   0  0  0  0  0  0  0  0  0  0  0  0
  -17.5303   42.7391  -22.8310 O   0  0  0  0  0  0  0  0  0  0  0  0
  -17.7678   43.5044  -20.6291 C   0  0  2  0  0  0  0  0  0  0  0  0
  -18.7789   44.5055  -20.8815 N   0  0  0  0  0  0  0  0  0  0  0  0
  -16.4111   44.0790  -20.5666 C   0  0  0  0  0  0  0  0  0  0  0  0
  -15.7644   44.4255  -21.7212 C   0  0  0  0  0  0  0  0  0  0  0  0
  -14.4853   44.9668  -21.6560 C   0  0  0  0  0  0  0  0  0  0  0  0
  -13.8654   45.1563  -20.4379 C   0  0  0  0  0  0  0  0  0  0  0  0
  -14.5173   44.8076  -19.2854 C   0  0  0  0  0  0  0  0  0  0  0  0
  -15.7935   44.2677  -19.3519 C   0  0  0  0  0  0  0  0  0  0  0  0
  -17.9846   38.6689  -22.0246 C   0  0  1  0  0  0  0  0  0  0  0  0
  -18.0177   38.3483  -20.2134 S   0  0  0  0  0  0  0  0  0  0  0  0
  -18.5014   36.6132  -20.1924 C   0  0  0  0  0  0  0  0  0  0  0  0
  1  2  1  0
  2  3  2  0
  3  4  1  0
  4  5  2  0
  4  6  1  0
  3  7  1  0
  7  8  1  0
  8  9  2  0
  8 10  1  0
 10 11  1  1
 11 12  1  0
 12 13  2  0
 12 14  1  0
 14 15  1  6
 14 16  1  0
 16 17  2  0
 17 18  1  0
 18 19  2  0
 19 20  1  0
 20 21  2  0
 10 22  1  0
 22 23  1  1
 23 24  1  0
 24  2  1  0
 22  7  1  0
 21 16  1  0
M  END
$$$$
