
     RDKit          3D

 24 27  0  0  0  0  0  0  0  0999 V2000
  -29.7411    7.5190  -28.4807 C   0  0  0  0  0  0  0  0  0  0  0  0
  -28.7447    7.7459  -27.3347 C   0  0  0  0  0  0  0  0  0  0  0  0
  -28.1572    6.4115  -26.8901 C   0  0  0  0  0  0  0  0  0  0  0  0
  -27.6011    8.5687  -27.7969 C   0  0  0  0  0  0  0  0  0  0  0  0
  -27.2936    9.7483  -27.3007 C   0  0  0  0  0  0  0  0  0  0  0  0
  -28.1216   10.2855  -26.2327 C   0  0  0  0  0  0  0  0  0  0  0  0
  -29.2027    9.5799  -25.7490 C   0  0  0  0  0  0  0  0  0  0  0  0
  -29.9675   10.1249  -24.7313 C   0  0  0  0  0  0  0  0  0  0  0  0
  -29.6648   11.3549  -24.1989 C   0  0  0  0  0  0  0  0  0  0  0  0
  -28.5871   12.0461  -24.6890 C   0  0  0  0  0  0  0  0  0  0  0  0
  -27.8102   11.5262  -25.7009 C   0  0  0  0  0  0  0  0  0  0  0  0
  -26.7377   12.2291  -26.1791 O   0  0  0  0  0  0  0  0  0  0  0  0
  -25.9720   13.1072  -25.3473 C   0  0  0  0  0  0  0  0  0  0  0  0
  -26.6807   13.3722  -24.0443 C   0  0  1  0  0  0  0  0  0  0  0  0
  -26.2221   14.5549  -23.3150 C   0  0  0  0  0  0  0  0  0  0  0  0
  -27.1342   15.5805  -23.0969 C   0  0  0  0  0  0  0  0  0  0  0  0
  -26.8394   16.7472  -22.4365 C   0  0  0  0  0  0  0  0  0  0  0  0
  -25.5451   16.8796  -21.9716 C   0  0  0  0  0  0  0  0  0  0  0  0
  -25.2348   18.0620  -21.2990 O   0  0  0  0  0  0  0  0  0  0  0  0
  -24.6318   15.8805  -22.1761 C   0  0  0  0  0  0  0  0  0  0  0  0
  -24.9418   14.7083  -22.8435 C   0  0  0  0  0  0  0  0  0  0  0  0
  -23.9539   13.7437  -23.0060 O   0  0  0  0  0  0  0  0  0  0  0  0
  -28.1702   13.3944  -24.1788 C   0  0  0  0  0  0  0  0  0  0  0  0
  -29.4818    8.3524  -26.3006 O   0  0  0  0  0  0  0  0  0  0  0  0
  1  2  1  0
  2  3  1  0
  2  4  1  0
  4  5  2  0
  5  6  1  0
  6  7  2  0
  7  8  1  0
  8  9  2  0
  9 10  1  0
 10 11  2  0
 11 12  1  0
 12 13  1  0
 13 14  1  0
 14 15  1  6
 15 16  2  0
 16 17  1  0
 17 18  2  0
 18 19  1  0
 18 20  1  0
 20 21  2  0
 21 22  1  0
 14 23  1  0
  7 24  1  0
 24  2  1  0
 11  6  1  0
 21 15  1  0
 23 10  1  0
M  END
$$$$
