
     RDKit          3D

 12 12  0  0  0  0  0  0  0  0999 V2000
  -18.4195   38.2848  -21.0433 O   0  0  0  0  0  0  0  0  0  0  0  0
  -17.8407   37.3876  -21.7191 C   0  0  0  0  0  0  0  0  0  0  0  0
  -16.6440   37.7679  -22.3276 O   0  0  0  0  0  0  0  0  0  0  0  0
  -18.4001   36.0635  -21.8390 C   0  0  0  0  0  0  0  0  0  0  0  0
  -17.7819   35.1160  -22.6017 C   0  0  0  0  0  0  0  0  0  0  0  0
  -18.3297   33.8545  -22.7061 C   0  0  0  0  0  0  0  0  0  0  0  0
  -17.7380   32.8516  -23.4717 O   0  0  0  0  0  0  0  0  0  0  0  0
  -19.4969   33.5351  -22.0491 C   0  0  0  0  0  0  0  0  0  0  0  0
  -20.0693   32.2523  -22.1451 O   0  0  0  0  0  0  0  0  0  0  0  0
  -20.1323   34.4795  -21.2762 C   0  0  0  0  0  0  0  0  0  0  0  0
  -21.3036   34.1393  -20.6242 O   0  0  0  0  0  0  0  0  0  0  0  0
  -19.5581   35.7547  -21.1842 C   0  0  0  0  0  0  0  0  0  0  0  0
  1  2  2  0
  2  3  1  0
  2  4  1  0
  4  5  2  0
  5  6  1  0
  6  7  1  0
  6  8  2  0
  8  9  1  0
  8 10  1  0
 10 11  1  0
 10 12  2  0
 12  4  1  0
M  END
$$$$
