
     RDKit          3D

 21 23  0  0  0  0  0  0  0  0999 V2000
  -15.1440   46.5916  -18.8235 C   0  0  0  0  0  0  0  0  0  0  0  0
  -15.7641   46.3035  -20.0423 O   0  0  0  0  0  0  0  0  0  0  0  0
  -16.3231   45.0682  -20.3431 C   0  0  0  0  0  0  0  0  0  0  0  0
  -17.4780   44.9744  -21.0837 C   0  0  0  0  0  0  0  0  0  0  0  0
  -18.0429   43.7617  -21.3894 C   0  0  0  0  0  0  0  0  0  0  0  0
  -17.4842   42.5428  -20.9697 C   0  0  0  0  0  0  0  0  0  0  0  0
  -18.1271   41.3309  -21.3256 N   0  0  0  0  0  0  0  0  0  0  0  0
  -17.5441   40.2266  -21.9624 C   0  0  0  0  0  0  0  0  0  0  0  0
  -16.3284   40.2345  -22.2530 O   0  0  0  0  0  0  0  0  0  0  0  0
  -18.3707   39.0031  -22.3117 C   0  0  0  0  0  0  0  0  0  0  0  0
  -17.9949   37.8697  -21.3971 C   0  0  0  0  0  0  0  0  0  0  0  0
  -17.8466   36.3355  -22.4167 S   0  0  0  0  0  0  0  0  0  0  0  0
  -19.5480   35.8581  -22.2361 C   0  0  0  0  0  0  0  0  0  0  0  0
  -20.4752   35.0709  -22.7390 N   0  0  0  0  0  0  0  0  0  0  0  0
  -21.6041   35.2581  -22.0652 C   0  0  0  0  0  0  0  0  0  0  0  0
  -21.3247   36.1902  -21.1333 N   0  0  0  0  0  0  0  0  0  0  0  0
  -20.0432   36.5656  -21.2377 N   0  0  0  0  0  0  0  0  0  0  0  0
  -19.1671   37.4514  -20.5880 C   0  0  0  0  0  0  0  0  0  0  0  0
  -19.2771   37.9229  -19.3945 O   0  0  0  0  0  0  0  0  0  0  0  0
  -16.3381   42.6388  -20.2349 C   0  0  0  0  0  0  0  0  0  0  0  0
  -15.7623   43.8868  -19.9239 C   0  0  0  0  0  0  0  0  0  0  0  0
  1  2  1  0
  2  3  1  0
  3  4  2  0
  4  5  1  0
  5  6  2  0
  6  7  1  0
  7  8  1  0
  8  9  2  0
  8 10  1  0
 10 11  1  0
 11 12  1  0
 12 13  1  0
 13 14  2  0
 14 15  1  0
 15 16  2  0
 16 17  1  0
 17 18  1  0
 18 19  2  0
  6 20  1  0
 20 21  2  0
 21  3  1  0
 18 11  1  0
 17 13  1  0
M  END
$$$$
