
     RDKit          3D

 37 40  0  0  0  0  0  0  0  0999 V2000
  -20.0948   18.5138  -36.0117 C   0  0  0  0  0  0  0  0  0  0  0  0
  -20.8496   18.6318  -34.7268 C   0  0  0  0  0  0  0  0  0  0  0  0
  -19.9428   18.8098  -33.5622 C   0  0  0  0  0  0  0  0  0  0  0  0
  -18.5763   18.8144  -33.7615 C   0  0  0  0  0  0  0  0  0  0  0  0
  -17.6406   18.9728  -32.7615 C   0  0  0  0  0  0  0  0  0  0  0  0
  -16.2123   18.9702  -33.0316 C   0  0  0  0  0  0  0  0  0  0  0  0
  -15.2542   19.0762  -31.9067 C   0  0  0  0  0  0  0  0  0  0  0  0
  -15.7079   18.8786  -34.2179 N   0  0  0  0  0  0  0  0  0  0  0  0
  -15.9757   18.1026  -35.1736 O   0  0  0  0  0  0  0  0  0  0  0  0
  -16.2509   17.2854  -36.1474 C   0  0  0  0  0  0  0  0  0  0  0  0
  -15.6401   17.5636  -37.4867 C   0  0  0  0  0  0  0  0  0  0  0  0
  -16.3793   17.9739  -38.5645 C   0  0  0  0  0  0  0  0  0  0  0  0
  -15.7668   18.2154  -39.7714 C   0  0  0  0  0  0  0  0  0  0  0  0
  -14.3748   18.0622  -39.9788 C   0  0  0  0  0  0  0  0  0  0  0  0
  -13.8143   18.3445  -41.2815 C   0  0  0  0  0  0  0  0  0  0  0  0
  -13.5291   17.1323  -42.1442 C   0  0  0  0  0  0  0  0  0  0  0  0
  -12.3415   17.5193  -43.0457 C   0  0  0  0  0  0  0  0  0  0  0  0
  -12.7657   18.7177  -43.8509 C   0  0  0  0  0  0  0  0  0  0  0  0
  -13.1038   19.9054  -43.0094 C   0  0  0  0  0  0  0  0  0  0  0  0
  -14.2927   19.4724  -42.1025 C   0  0  0  0  0  0  0  0  0  0  0  0
  -13.6373   17.6526  -38.9014 C   0  0  0  0  0  0  0  0  0  0  0  0
  -12.2013   17.4628  -38.9976 C   0  0  0  0  0  0  0  0  0  0  0  0
  -11.4718   18.4748  -39.5640 F   0  0  0  0  0  0  0  0  0  0  0  0
  -11.7831   16.1906  -39.3442 F   0  0  0  0  0  0  0  0  0  0  0  0
  -11.7083   17.5255  -37.6582 F   0  0  0  0  0  0  0  0  0  0  0  0
  -14.2888   17.4115  -37.6758 C   0  0  0  0  0  0  0  0  0  0  0  0
  -18.1216   19.1381  -31.4707 C   0  0  0  0  0  0  0  0  0  0  0  0
  -19.4923   19.1373  -31.2420 C   0  0  0  0  0  0  0  0  0  0  0  0
  -20.3891   18.9753  -32.2743 C   0  0  0  0  0  0  0  0  0  0  0  0
  -21.8190   18.9789  -31.9873 C   0  0  0  0  0  0  0  0  0  0  0  0
  -22.5080   17.7669  -32.3220 N   0  0  0  0  0  0  0  0  0  0  0  0
  -23.3261   17.3081  -31.2180 C   0  0  0  0  0  0  0  0  0  0  0  0
  -22.5931   15.9985  -31.2157 C   0  0  0  0  0  0  0  0  0  0  0  0
  -23.4589   14.8821  -31.6618 C   0  0  0  0  0  0  0  0  0  0  0  0
  -23.1624   14.1255  -32.6206 O   0  0  0  0  0  0  0  0  0  0  0  0
  -24.6524   14.6567  -30.9950 O   0  0  0  0  0  0  0  0  0  0  0  0
  -21.6999   16.5652  -32.2989 C   0  0  0  0  0  0  0  0  0  0  0  0
  1  2  1  0
  2  3  1  0
  3  4  2  0
  4  5  1  0
  5  6  1  0
  6  7  1  0
  6  8  2  0
  8  9  1  0
  9 10  1  0
 10 11  1  0
 11 12  2  0
 12 13  1  0
 13 14  2  0
 14 15  1  0
 15 16  1  0
 16 17  1  0
 17 18  1  0
 18 19  1  0
 19 20  1  0
 14 21  1  0
 21 22  1  0
 22 23  1  0
 22 24  1  0
 22 25  1  0
 21 26  2  0
  5 27  2  0
 27 28  1  0
 28 29  2  0
 29 30  1  0
 30 31  1  0
 31 32  1  0
 32 33  1  0
 33 34  1  0
 34 35  2  0
 34 36  1  0
 33 37  1  0
 29  3  1  0
 37 31  1  0
 26 11  1  0
 20 15  1  0
M  END
$$$$
