
     RDKit          3D

 18 20  0  0  0  0  0  0  0  0999 V2000
  -18.9926   13.4328  -32.8017 C   0  0  0  0  0  0  0  0  0  0  0  0
  -18.3747   14.1659  -31.6937 N   0  0  0  0  0  0  0  0  0  0  0  0
  -17.1943   14.8394  -32.1244 C   0  0  0  0  0  0  0  0  0  0  0  0
  -16.9281   16.1277  -31.4831 C   0  0  0  0  0  0  0  0  0  0  0  0
  -15.6448   16.5031  -31.1540 C   0  0  0  0  0  0  0  0  0  0  0  0
  -14.5425   15.6429  -31.4299 N   0  0  0  0  0  0  0  0  0  0  0  0
  -15.4829   17.7333  -30.5537 C   0  0  0  0  0  0  0  0  0  0  0  0
  -16.5591   18.5672  -30.2872 C   0  0  0  0  0  0  0  0  0  0  0  0
  -17.8272   18.1720  -30.6238 C   0  0  0  0  0  0  0  0  0  0  0  0
  -18.0196   16.9637  -31.2173 C   0  0  0  0  0  0  0  0  0  0  0  0
  -19.3329   16.4108  -31.6326 C   0  0  0  0  0  0  0  0  0  0  0  0
  -20.4822   17.2065  -31.1622 C   0  0  0  0  0  0  0  0  0  0  0  0
  -21.1514   16.9659  -29.9904 C   0  0  0  0  0  0  0  0  0  0  0  0
  -22.2144   17.7657  -29.6367 C   0  0  0  0  0  0  0  0  0  0  0  0
  -22.6259   18.8140  -30.4422 C   0  0  0  0  0  0  0  0  0  0  0  0
  -21.9697   19.0788  -31.6280 C   0  0  0  0  0  0  0  0  0  0  0  0
  -20.9133   18.2555  -31.9430 C   0  0  0  0  0  0  0  0  0  0  0  0
  -19.3699   14.9893  -31.0731 C   0  0  0  0  0  0  0  0  0  0  0  0
  1  2  1  0
  2  3  1  0
  3  4  1  0
  4  5  2  0
  5  6  1  0
  5  7  1  0
  7  8  2  0
  8  9  1  0
  9 10  2  0
 10 11  1  0
 11 12  1  0
 12 13  2  0
 13 14  1  0
 14 15  2  0
 15 16  1  0
 16 17  2  0
 11 18  1  0
 18  2  1  0
 10  4  1  0
 17 12  1  0
M  END
$$$$
