
     RDKit          3D

 27 30  0  0  0  0  0  0  0  0999 V2000
  -14.4821   18.2418  -31.2704 C   0  0  0  0  0  0  0  0  0  0  0  0
  -15.6321   18.8970  -30.5872 C   0  0  0  0  0  0  0  0  0  0  0  0
  -16.9745   18.6960  -31.3638 C   0  0  0  0  0  0  0  0  0  0  0  0
  -17.2952   19.9970  -32.0246 C   0  0  0  0  0  0  0  0  0  0  0  0
  -17.9572   19.8664  -33.3475 C   0  0  0  0  0  0  0  0  0  0  0  0
  -17.9942   18.2308  -30.3865 C   0  0  0  0  0  0  0  0  0  0  0  0
  -19.3706   18.7270  -30.5300 C   0  0  0  0  0  0  0  0  0  0  0  0
  -19.8792   19.8257  -29.8750 C   0  0  0  0  0  0  0  0  0  0  0  0
  -21.1679   20.2751  -30.0632 C   0  0  0  0  0  0  0  0  0  0  0  0
  -22.0226   19.6396  -30.9265 C   0  0  0  0  0  0  0  0  0  0  0  0
  -23.3773   20.0144  -31.1617 N   0  0  0  0  0  0  0  0  0  0  0  0
  -23.9609   21.0085  -30.3570 C   0  0  0  0  0  0  0  0  0  0  0  0
  -24.9173   21.3444  -29.7182 N   0  0  0  0  0  0  0  0  0  0  0  0
  -25.1517   22.4461  -29.0649 C   0  0  0  0  0  0  0  0  0  0  0  0
  -26.2825   22.7997  -28.3252 C   0  0  0  0  0  0  0  0  0  0  0  0
  -26.3539   24.0152  -27.6928 C   0  0  0  0  0  0  0  0  0  0  0  0
  -25.3635   24.9498  -27.7301 C   0  0  0  0  0  0  0  0  0  0  0  0
  -24.2247   24.6258  -28.4590 C   0  0  0  0  0  0  0  0  0  0  0  0
  -24.1413   23.4084  -29.0978 C   0  0  0  0  0  0  0  0  0  0  0  0
  -22.9035   22.6017  -30.1045 S   0  0  0  0  0  0  0  0  0  0  0  0
  -21.5230   18.5142  -31.6066 C   0  0  0  0  0  0  0  0  0  0  0  0
  -20.2487   18.0868  -31.4068 C   0  0  0  0  0  0  0  0  0  0  0  0
  -18.0116   16.7618  -30.2936 N   0  0  0  0  0  0  0  0  0  0  0  0
  -17.9655   15.8930  -31.2908 C   0  0  0  0  0  0  0  0  0  0  0  0
  -17.9877   14.6561  -30.7713 N   0  0  0  0  0  0  0  0  0  0  0  0
  -18.0475   14.7990  -29.4454 C   0  0  0  0  0  0  0  0  0  0  0  0
  -18.0628   16.0951  -29.1647 N   0  0  0  0  0  0  0  0  0  0  0  0
  1  2  1  0
  2  3  1  0
  3  4  1  0
  4  5  1  0
  3  6  1  0
  6  7  1  0
  7  8  2  0
  8  9  1  0
  9 10  2  0
 10 11  1  0
 11 12  1  0
 12 13  2  0
 13 14  1  0
 14 15  2  0
 15 16  1  0
 16 17  2  0
 17 18  1  0
 18 19  2  0
 19 20  1  0
 10 21  1  0
 21 22  2  0
  6 23  1  0
 23 24  1  0
 24 25  2  0
 25 26  1  0
 26 27  2  0
 22  7  1  0
 27 23  1  0
 20 12  1  0
 19 14  1  0
M  END
$$$$
