
     RDKit          3D

 20 22  0  0  0  0  0  0  0  0999 V2000
  -13.8112   18.8979  -36.0435 C   0  0  0  0  0  0  0  0  0  0  0  0
  -15.1497   18.7319  -36.5647 N   0  0  0  0  0  0  0  0  0  0  0  0
  -16.1170   17.9664  -35.8766 C   0  0  0  0  0  0  0  0  0  0  0  0
  -15.6807   17.1567  -34.8209 C   0  0  0  0  0  0  0  0  0  0  0  0
  -16.5809   16.4034  -34.1292 C   0  0  0  0  0  0  0  0  0  0  0  0
  -16.2116   15.5861  -33.0767 C   0  0  0  0  0  0  0  0  0  0  0  0
  -14.8783   15.5044  -32.6692 N   0  0  0  0  0  0  0  0  0  0  0  0
  -14.3326   14.5596  -31.7485 C   0  0  0  0  0  0  0  0  0  0  0  0
  -13.2695   13.7311  -32.0187 C   0  0  0  0  0  0  0  0  0  0  0  0
  -12.8036   12.8164  -31.0638 C   0  0  0  0  0  0  0  0  0  0  0  0
  -13.3775   12.7002  -29.8204 C   0  0  0  0  0  0  0  0  0  0  0  0
  -14.4423   13.5252  -29.5384 C   0  0  0  0  0  0  0  0  0  0  0  0
  -15.2711   13.4008  -27.8221 Br  0  0  0  0  0  0  0  0  0  0  0  0
  -14.8958   14.4203  -30.4781 C   0  0  0  0  0  0  0  0  0  0  0  0
  -17.2067   14.9019  -32.4849 N   0  0  0  0  0  0  0  0  0  0  0  0
  -18.4961   14.9655  -32.8471 C   0  0  0  0  0  0  0  0  0  0  0  0
  -18.8311   15.7589  -33.8638 N   0  0  0  0  0  0  0  0  0  0  0  0
  -17.9209   16.4868  -34.5261 C   0  0  0  0  0  0  0  0  0  0  0  0
  -18.3380   17.2874  -35.5673 C   0  0  0  0  0  0  0  0  0  0  0  0
  -17.4162   18.0149  -36.2235 N   0  0  0  0  0  0  0  0  0  0  0  0
  1  2  1  0
  2  3  1  0
  3  4  2  0
  4  5  1  0
  5  6  2  0
  6  7  1  0
  7  8  1  0
  8  9  2  0
  9 10  1  0
 10 11  2  0
 11 12  1  0
 12 13  1  0
 12 14  2  0
  6 15  1  0
 15 16  2  0
 16 17  1  0
 17 18  2  0
 18 19  1  0
 19 20  2  0
 20  3  1  0
 18  5  1  0
 14  8  1  0
M  END
$$$$
