
     RDKit          3D

 18 18  0  0  0  0  0  0  0  0999 V2000
  -12.8085   18.2990  -43.0559 Cl  0  0  0  0  0  0  0  0  0  0  0  0
  -12.8094   18.3005  -43.0592 Cl  0  0  0  0  0  0  0  0  0  0  0  0
  -13.1885   20.9069  -45.1499 C   0  0  0  0  0  0  0  0  0  0  0  0
  -12.9519   20.9312  -43.7929 C   0  0  0  0  0  0  0  0  0  0  0  0
  -12.8268   19.7729  -43.0511 C   0  0  0  0  0  0  0  0  0  0  0  0
  -12.9438   18.5584  -43.6953 C   0  0  0  0  0  0  0  0  0  0  0  0
  -12.8164   17.3957  -42.9689 C   0  0  0  0  0  0  0  0  0  0  0  0
  -12.5939   17.3581  -41.5727 N   0  0  0  0  0  0  0  0  0  0  0  0
  -13.5185   17.7844  -40.5496 C   0  0  0  0  0  0  0  0  0  0  0  0
  -12.6734   18.3139  -39.3994 C   0  0  0  0  0  0  0  0  0  0  0  0
  -11.8615   17.3124  -38.7852 N   0  0  0  0  0  0  0  0  0  0  0  0
  -11.6173   16.2382  -39.7290 C   0  0  0  0  0  0  0  0  0  0  0  0
  -11.3266   16.8521  -41.0863 C   0  0  0  0  0  0  0  0  0  0  0  0
  -12.9398   16.1997  -43.6900 C   0  0  0  0  0  0  0  0  0  0  0  0
  -13.1754   16.1755  -45.0450 C   0  0  0  0  0  0  0  0  0  0  0  0
  -13.3001   17.3402  -45.7516 C   0  0  0  0  0  0  0  0  0  0  0  0
  -13.1838   18.5340  -45.0738 C   0  0  0  0  0  0  0  0  0  0  0  0
  -13.3092   19.7055  -45.8177 C   0  0  0  0  0  0  0  0  0  0  0  0
  3  4  2  0
  4  5  1  0
  5  6  2  0
  6  7  1  0
  7  8  1  0
  8  9  1  0
  9 10  1  0
 10 11  1  0
 11 12  1  0
 12 13  1  0
  7 14  2  0
 14 15  1  0
 15 16  2  0
 16 17  1  0
 17 18  2  0
 18  3  1  0
 17  6  1  0
 13  8  1  0
M  END
$$$$
