
     RDKit          3D

 17 17  0  0  0  0  0  0  0  0999 V2000
  -20.2424   45.9223  -23.1607 C   0  0  0  0  0  0  0  0  0  0  0  0
  -19.1120   45.0753  -23.0792 O   0  0  0  0  0  0  0  0  0  0  0  0
  -18.3445   44.9796  -21.9301 C   0  0  0  0  0  0  0  0  0  0  0  0
  -18.1324   46.1063  -21.1898 C   0  0  0  0  0  0  0  0  0  0  0  0
  -17.3865   46.0635  -20.0547 C   0  0  0  0  0  0  0  0  0  0  0  0
  -16.8557   44.8723  -19.6728 C   0  0  0  0  0  0  0  0  0  0  0  0
  -17.0709   43.7407  -20.4201 C   0  0  0  0  0  0  0  0  0  0  0  0
  -17.8167   43.7132  -21.5799 C   0  0  0  0  0  0  0  0  0  0  0  0
  -18.0386   42.6351  -22.3142 O   0  0  0  0  0  0  0  0  0  0  0  0
  -17.7831   41.3498  -22.4514 C   0  0  0  0  0  0  0  0  0  0  0  0
  -18.7105   40.2678  -22.0120 C   0  0  0  0  0  0  0  0  0  0  0  0
  -19.7444   40.2521  -22.9844 O   0  0  0  0  0  0  0  0  0  0  0  0
  -18.1596   38.9380  -21.7192 C   0  0  0  0  0  0  0  0  0  0  0  0
  -18.4686   38.4454  -20.4347 O   0  0  0  0  0  0  0  0  0  0  0  0
  -19.6934   38.1043  -19.9419 C   0  0  0  0  0  0  0  0  0  0  0  0
  -19.8689   37.8083  -18.5446 N   0  0  0  0  0  0  0  0  0  0  0  0
  -20.6853   38.0425  -20.6947 O   0  0  0  0  0  0  0  0  0  0  0  0
  1  2  1  0
  2  3  1  0
  3  4  2  0
  4  5  1  0
  5  6  2  0
  6  7  1  0
  7  8  2  0
  8  9  1  0
  9 10  1  0
 10 11  1  0
 11 12  1  0
 11 13  1  0
 13 14  1  0
 14 15  1  0
 15 16  1  0
 15 17  2  0
  8  3  1  0
M  END
$$$$
