
     RDKit          3D

 12 13  0  0  0  0  0  0  0  0999 V2000
  -16.1119   19.1368  -32.7574 C   0  0  0  0  0  0  0  0  0  0  0  0
  -16.9851   18.2823  -33.4200 C   0  0  0  0  0  0  0  0  0  0  0  0
  -17.0726   16.9641  -33.0325 C   0  0  0  0  0  0  0  0  0  0  0  0
  -16.2967   16.5185  -32.0000 C   0  0  0  0  0  0  0  0  0  0  0  0
  -16.3388   15.0966  -31.5234 C   0  0  0  0  0  0  0  0  0  0  0  0
  -17.1070   14.9679  -30.3098 N   0  0  0  0  0  0  0  0  0  0  0  0
  -18.4474   14.9646  -30.2296 C   0  0  0  0  0  0  0  0  0  0  0  0
  -18.7349   14.8202  -28.8884 C   0  0  0  0  0  0  0  0  0  0  0  0
  -17.5803   14.7412  -28.2041 N   0  0  0  0  0  0  0  0  0  0  0  0
  -16.5763   14.8329  -29.0853 C   0  0  0  0  0  0  0  0  0  0  0  0
  -15.4299   17.3719  -31.3441 C   0  0  0  0  0  0  0  0  0  0  0  0
  -15.3203   18.7020  -31.7112 C   0  0  0  0  0  0  0  0  0  0  0  0
  1  2  2  0
  2  3  1  0
  3  4  2  0
  4  5  1  0
  5  6  1  0
  6  7  1  0
  7  8  2  0
  8  9  1  0
  9 10  2  0
  4 11  1  0
 11 12  2  0
 12  1  1  0
 10  6  1  0
M  END
$$$$
