
     RDKit          3D

 20 22  0  0  0  0  0  0  0  0999 V2000
  -20.9455   39.6206  -23.1399 C   0  0  0  0  0  0  0  0  0  0  0  0
  -19.5723   39.1013  -22.8601 C   0  0  2  0  0  0  0  0  0  0  0  0
  -19.2478   37.8312  -23.5820 C   0  0  0  0  0  0  0  0  0  0  0  0
  -19.0876   36.7831  -22.5926 N   0  0  0  0  0  0  0  0  0  0  0  0
  -19.9730   35.8243  -22.2522 C   0  0  0  0  0  0  0  0  0  0  0  0
  -19.4260   35.0275  -21.2673 C   0  0  0  0  0  0  0  0  0  0  0  0
  -18.2036   35.5395  -21.0389 N   0  0  0  0  0  0  0  0  0  0  0  0
  -18.0286   36.5669  -21.8270 N   0  0  0  0  0  0  0  0  0  0  0  0
  -19.3515   39.0544  -21.3956 C   0  0  2  0  0  0  0  0  0  0  0  0
  -20.5927   38.4942  -20.7591 C   0  0  0  0  0  0  0  0  0  0  0  0
  -20.5166   37.7203  -19.7774 O   0  0  0  0  0  0  0  0  0  0  0  0
  -21.8142   38.8385  -21.2639 O   0  0  0  0  0  0  0  0  0  0  0  0
  -19.0827   40.3282  -20.8816 N   0  0  0  0  0  0  0  0  0  0  0  0
  -18.8472   41.3761  -19.9721 C   0  0  0  0  0  0  0  0  0  0  0  0
  -19.2824   41.6916  -18.8540 O   0  0  0  0  0  0  0  0  0  0  0  0
  -17.8666   41.8936  -20.9646 C   0  0  0  0  0  0  0  0  0  0  0  0
  -18.8853   41.3833  -21.9031 C   0  0  1  0  0  0  0  0  0  0  0  0
  -18.3867   40.3965  -23.2820 S   0  0  0  0  0  6  0  0  0  0  0  0
  -16.9956   39.9162  -23.1203 O   0  0  0  0  0  0  0  0  0  0  0  0
  -18.6879   41.0068  -24.5927 O   0  0  0  0  0  0  0  0  0  0  0  0
  2  1  1  1
  2  3  1  0
  3  4  1  0
  4  5  1  0
  5  6  2  0
  6  7  1  0
  7  8  2  0
  2  9  1  0
  9 10  1  1
 10 11  2  0
 10 12  1  0
  9 13  1  0
 13 14  1  0
 14 15  2  0
 14 16  1  0
 17 16  1  1
 17 18  1  0
 18 19  2  0
 18 20  2  0
 18  2  1  0
  8  4  1  0
 17 13  1  0
M  END
$$$$
