
     RDKit          3D

 14 14  0  0  0  0  0  0  0  0999 V2000
  -17.5778   40.2415  -21.0864 N   0  0  0  0  0  0  0  0  0  0  0  0
  -17.4928   40.1928  -22.3671 C   0  0  0  0  0  0  0  0  0  0  0  0
  -17.2030   41.3680  -23.1113 N   0  0  0  0  0  0  0  0  0  0  0  0
  -17.6995   38.9301  -22.9839 N   0  0  0  0  0  0  0  0  0  0  0  0
  -18.4047   37.8496  -22.3570 C   0  0  0  0  0  0  0  0  0  0  0  0
  -18.4436   37.8174  -21.0920 N   0  0  0  0  0  0  0  0  0  0  0  0
  -19.0473   36.8428  -23.1110 N   0  0  0  0  0  0  0  0  0  0  0  0
  -19.5579   35.6620  -22.5508 C   0  0  0  0  0  0  0  0  0  0  0  0
  -19.0230   34.4277  -22.9556 C   0  0  0  0  0  0  0  0  0  0  0  0
  -19.4923   33.2614  -22.4134 C   0  0  0  0  0  0  0  0  0  0  0  0
  -20.4996   33.2678  -21.4585 C   0  0  0  0  0  0  0  0  0  0  0  0
  -21.0475   34.4639  -21.0378 C   0  0  0  0  0  0  0  0  0  0  0  0
  -22.3151   34.5475  -19.8423 Cl  0  0  0  0  0  0  0  0  0  0  0  0
  -20.5550   35.6287  -21.6014 C   0  0  0  0  0  0  0  0  0  0  0  0
  1  2  2  0
  2  3  1  0
  2  4  1  0
  4  5  1  0
  5  6  2  0
  5  7  1  0
  7  8  1  0
  8  9  2  0
  9 10  1  0
 10 11  2  0
 11 12  1  0
 12 13  1  0
 12 14  2  0
 14  8  1  0
M  END
$$$$
