
     RDKit          3D

 28 30  0  0  0  0  0  0  0  0999 V2000
  -18.8907   30.9190  -20.6447 O   0  0  0  0  0  0  0  0  0  0  0  0
  -18.7476   32.1631  -20.7578 C   0  0  0  0  0  0  0  0  0  0  0  0
  -17.6926   32.7313  -20.0600 O   0  0  0  0  0  0  0  0  0  0  0  0
  -19.6528   32.9535  -21.5840 C   0  0  0  0  0  0  0  0  0  0  0  0
  -19.5161   34.3227  -21.6556 C   0  0  0  0  0  0  0  0  0  0  0  0
  -20.3642   35.1019  -22.4348 C   0  0  0  0  0  0  0  0  0  0  0  0
  -20.2188   36.5126  -22.5049 N   0  0  0  0  0  0  0  0  0  0  0  0
  -19.1450   37.1197  -22.2994 N   0  0  0  0  0  0  0  0  0  0  0  0
  -18.8993   38.4816  -22.5943 C   0  0  0  0  0  0  0  0  0  0  0  0
  -17.7087   39.0441  -22.1952 C   0  0  0  0  0  0  0  0  0  0  0  0
  -17.4179   40.3681  -22.4570 C   0  0  0  0  0  0  0  0  0  0  0  0
  -18.2856   41.1981  -23.1236 C   0  0  0  0  0  0  0  0  0  0  0  0
  -17.9794   42.8745  -23.4965 S   0  0  0  0  0  6  0  0  0  0  0  0
  -16.4812   43.1429  -23.4296 O   0  0  0  0  0  0  0  0  0  0  0  0
  -18.3676   43.1135  -24.9338 O   0  0  0  0  0  0  0  0  0  0  0  0
  -18.8242   43.8940  -22.4543 N   0  0  0  0  0  0  0  0  0  0  0  0
  -20.1493   44.3357  -22.5831 C   0  0  0  0  0  0  0  0  0  0  0  0
  -20.8819   44.1026  -23.7145 C   0  0  0  0  0  0  0  0  0  0  0  0
  -22.1947   44.5762  -23.8312 C   0  0  0  0  0  0  0  0  0  0  0  0
  -22.7716   45.2832  -22.8150 C   0  0  0  0  0  0  0  0  0  0  0  0
  -22.0110   45.5028  -21.6904 C   0  0  0  0  0  0  0  0  0  0  0  0
  -20.7622   45.0432  -21.5979 N   0  0  0  0  0  0  0  0  0  0  0  0
  -19.4946   40.6089  -23.5233 C   0  0  0  0  0  0  0  0  0  0  0  0
  -19.7758   39.2925  -23.2590 C   0  0  0  0  0  0  0  0  0  0  0  0
  -21.3708   34.4998  -23.1581 C   0  0  0  0  0  0  0  0  0  0  0  0
  -21.5289   33.1105  -23.1009 C   0  0  0  0  0  0  0  0  0  0  0  0
  -20.6638   32.3674  -22.3130 C   0  0  0  0  0  0  0  0  0  0  0  0
  -20.8118   30.9920  -22.2495 O   0  0  0  0  0  0  0  0  0  0  0  0
  1  2  2  0
  2  3  1  0
  2  4  1  0
  4  5  2  0
  5  6  1  0
  6  7  1  0
  7  8  2  0
  8  9  1  0
  9 10  2  0
 10 11  1  0
 11 12  2  0
 12 13  1  0
 13 14  2  0
 13 15  2  0
 13 16  1  0
 16 17  1  0
 17 18  2  0
 18 19  1  0
 19 20  2  0
 20 21  1  0
 21 22  2  0
 12 23  1  0
 23 24  2  0
  6 25  2  0
 25 26  1  0
 26 27  2  0
 27 28  1  0
 27  4  1  0
 24  9  1  0
 22 17  1  0
M  END
$$$$
