
     RDKit          3D

 34 37  0  0  0  0  0  0  0  0999 V2000
  -18.2947   13.2047  -21.8777 F   0  0  0  0  0  0  0  0  0  0  0  0
  -18.7200   14.5190  -21.8823 C   0  0  0  0  0  0  0  0  0  0  0  0
  -18.3869   15.0561  -20.6464 F   0  0  0  0  0  0  0  0  0  0  0  0
  -18.1511   15.2318  -22.9013 F   0  0  0  0  0  0  0  0  0  0  0  0
  -20.2251   14.5585  -21.9420 C   0  0  0  0  0  0  0  0  0  0  0  0
  -20.8914   13.9710  -22.9938 C   0  0  0  0  0  0  0  0  0  0  0  0
  -22.2523   13.9890  -23.0777 C   0  0  0  0  0  0  0  0  0  0  0  0
  -23.0223   14.6027  -22.1023 C   0  0  0  0  0  0  0  0  0  0  0  0
  -24.4766   14.6198  -22.1957 C   0  0  0  0  0  0  0  0  0  0  0  0
  -25.1514   13.7693  -22.9138 C   0  0  0  0  0  0  0  0  0  0  0  0
  -26.6384   13.7582  -22.9093 C   0  0  0  0  0  0  0  0  0  0  0  0
  -27.4417   14.8253  -22.9835 N   0  0  0  0  0  0  0  0  0  0  0  0
  -28.7537   14.4218  -22.9515 C   0  0  0  0  0  0  0  0  0  0  0  0
  -29.9149   15.3523  -22.9825 C   0  0  0  0  0  0  0  0  0  0  0  0
  -30.3844   15.6127  -21.7283 O   0  0  0  0  0  0  0  0  0  0  0  0
  -30.6291   14.8976  -20.6096 C   0  0  0  0  0  0  0  0  0  0  0  0
  -30.1703   15.2038  -19.3507 C   0  0  0  0  0  0  0  0  0  0  0  0
  -30.4519   14.4238  -18.2226 C   0  0  0  0  0  0  0  0  0  0  0  0
  -31.2207   13.2906  -18.3365 C   0  0  0  0  0  0  0  0  0  0  0  0
  -31.5425   12.4347  -17.1604 C   0  0  0  0  0  0  0  0  0  0  0  0
  -32.8169   12.8351  -16.4663 C   0  0  0  0  0  0  0  0  0  0  0  0
  -33.0352   11.8995  -15.3026 C   0  0  0  0  0  0  0  0  0  0  0  0
  -34.5090   11.6589  -15.1292 C   0  0  0  0  0  0  0  0  0  0  0  0
  -34.8331   10.3237  -15.5271 N   0  0  0  0  0  0  0  0  0  0  0  0
  -34.7501    9.2235  -14.7702 C   0  0  0  0  0  0  0  0  0  0  0  0
  -35.1515    8.1618  -15.5315 C   0  0  0  0  0  0  0  0  0  0  0  0
  -35.4708    8.6685  -16.7505 N   0  0  0  0  0  0  0  0  0  0  0  0
  -35.2699    9.9698  -16.7192 N   0  0  0  0  0  0  0  0  0  0  0  0
  -31.6901   12.9685  -19.5920 C   0  0  0  0  0  0  0  0  0  0  0  0
  -31.4191   13.7252  -20.6989 C   0  0  0  0  0  0  0  0  0  0  0  0
  -28.6711   13.0592  -22.8541 C   0  0  0  0  0  0  0  0  0  0  0  0
  -27.4031   12.7104  -22.8324 O   0  0  0  0  0  0  0  0  0  0  0  0
  -22.3446   15.1811  -21.0651 C   0  0  0  0  0  0  0  0  0  0  0  0
  -20.9501   15.1774  -20.9540 C   0  0  0  0  0  0  0  0  0  0  0  0
  1  2  1  0
  2  3  1  0
  2  4  1  0
  2  5  1  0
  5  6  2  0
  6  7  1  0
  7  8  2  0
  8  9  1  0
  9 10  2  0
 10 11  1  0
 11 12  2  0
 12 13  1  0
 13 14  1  0
 14 15  1  0
 15 16  1  0
 16 17  2  0
 17 18  1  0
 18 19  2  0
 19 20  1  0
 20 21  1  0
 21 22  1  0
 22 23  1  0
 23 24  1  0
 24 25  1  0
 25 26  2  0
 26 27  1  0
 27 28  2  0
 19 29  1  0
 29 30  2  0
 13 31  2  0
 31 32  1  0
  8 33  1  0
 33 34  2  0
 34  5  1  0
 32 11  1  0
 30 16  1  0
 28 24  1  0
M  END
$$$$
