
     RDKit          3D

 33 37  0  0  0  0  0  0  0  0999 V2000
  -14.6573   -3.5480  -26.1502 C   0  0  0  0  0  0  0  0  0  0  0  0
  -15.9914   -3.1815  -26.4377 O   0  0  0  0  0  0  0  0  0  0  0  0
  -16.5796   -3.4108  -27.6639 C   0  0  0  0  0  0  0  0  0  0  0  0
  -16.0069   -3.1062  -28.8651 C   0  0  0  0  0  0  0  0  0  0  0  0
  -16.5999   -3.3386  -30.0700 C   0  0  0  0  0  0  0  0  0  0  0  0
  -15.9937   -3.0172  -31.2908 C   0  0  0  0  0  0  0  0  0  0  0  0
  -14.7628   -2.4521  -31.2126 O   0  0  0  0  0  0  0  0  0  0  0  0
  -13.9414   -1.9843  -32.1844 C   0  0  0  0  0  0  0  0  0  0  0  0
  -13.1058   -2.8053  -32.8942 C   0  0  0  0  0  0  0  0  0  0  0  0
  -12.2976   -2.2407  -33.8739 C   0  0  0  0  0  0  0  0  0  0  0  0
  -12.2906   -0.8964  -34.1712 C   0  0  0  0  0  0  0  0  0  0  0  0
  -11.6170   -0.1289  -35.0530 N   0  0  0  0  0  0  0  0  0  0  0  0
  -11.9919    1.1499  -34.9317 C   0  0  0  0  0  0  0  0  0  0  0  0
  -11.4795    2.3024  -35.7277 C   0  0  0  0  0  0  0  0  0  0  0  0
  -12.9373    1.1971  -33.9374 C   0  0  0  0  0  0  0  0  0  0  0  0
  -13.1460   -0.0943  -33.4358 C   0  0  0  0  0  0  0  0  0  0  0  0
  -13.9553   -0.6083  -32.4659 C   0  0  0  0  0  0  0  0  0  0  0  0
  -14.7782    0.1740  -31.7599 F   0  0  0  0  0  0  0  0  0  0  0  0
  -16.6894   -3.2998  -32.3988 N   0  0  0  0  0  0  0  0  0  0  0  0
  -17.9072   -3.8605  -32.4148 C   0  0  0  0  0  0  0  0  0  0  0  0
  -18.4855   -4.1674  -31.2446 N   0  0  0  0  0  0  0  0  0  0  0  0
  -17.8439   -3.9124  -30.0600 C   0  0  0  0  0  0  0  0  0  0  0  0
  -18.4767   -4.2441  -28.8819 C   0  0  0  0  0  0  0  0  0  0  0  0
  -17.8618   -4.0019  -27.6559 C   0  0  0  0  0  0  0  0  0  0  0  0
  -18.4126   -4.2914  -26.5447 O   0  0  0  0  0  0  0  0  0  0  0  0
  -18.9198   -4.6293  -25.4126 C   0  0  0  0  0  0  0  0  0  0  0  0
  -18.0184   -4.3753  -24.2027 C   0  0  0  0  0  0  0  0  0  0  0  0
  -18.8131   -4.6388  -22.9584 C   0  0  0  0  0  0  0  0  0  0  0  0
  -18.0223   -4.3812  -21.7827 N   0  0  0  0  0  0  0  0  0  0  0  0
  -18.6157   -3.4114  -20.8925 C   0  0  0  0  0  0  0  0  0  0  0  0
  -19.8529   -4.0914  -20.4010 C   0  0  0  0  0  0  0  0  0  0  0  0
  -19.3956   -5.5132  -20.2071 C   0  0  0  0  0  0  0  0  0  0  0  0
  -18.0776   -5.5978  -20.9572 C   0  0  0  0  0  0  0  0  0  0  0  0
  1  2  1  0
  2  3  1  0
  3  4  2  0
  4  5  1  0
  5  6  2  0
  6  7  1  0
  7  8  1  0
  8  9  2  0
  9 10  1  0
 10 11  2  0
 11 12  1  0
 12 13  1  0
 13 14  1  0
 13 15  2  0
 15 16  1  0
 16 17  2  0
 17 18  1  0
  6 19  1  0
 19 20  2  0
 20 21  1  0
 21 22  2  0
 22 23  1  0
 23 24  2  0
 24 25  1  0
 25 26  1  0
 26 27  1  0
 27 28  1  0
 28 29  1  0
 29 30  1  0
 30 31  1  0
 31 32  1  0
 32 33  1  0
 24  3  1  0
 33 29  1  0
 22  5  1  0
 17  8  1  0
 16 11  1  0
M  END
$$$$
