
     RDKit          3D

 25 27  0  0  0  0  0  0  0  0999 V2000
  -10.4293    1.0302  -20.7065 C   0  0  0  0  0  0  0  0  0  0  0  0
  -11.2533    0.0684  -21.4717 C   0  0  0  0  0  0  0  0  0  0  0  0
  -10.8171   -0.3885  -22.6972 C   0  0  0  0  0  0  0  0  0  0  0  0
  -11.5912   -1.2781  -23.3926 C   0  0  0  0  0  0  0  0  0  0  0  0
  -12.7999   -1.7320  -22.9002 C   0  0  0  0  0  0  0  0  0  0  0  0
  -13.6044   -2.6767  -23.6601 C   0  0  0  0  0  0  0  0  0  0  0  0
  -13.2334   -3.9755  -24.0538 C   0  0  0  0  0  0  0  0  0  0  0  0
  -11.9332   -4.5279  -23.7329 C   0  0  0  0  0  0  0  0  0  0  0  0
  -11.5140   -4.5458  -22.5156 O   0  0  0  0  0  0  0  0  0  0  0  0
  -10.9757   -5.1051  -24.6910 C   0  0  0  0  0  0  0  0  0  0  0  0
   -9.9074   -5.7286  -24.0314 F   0  0  0  0  0  0  0  0  0  0  0  0
  -14.2858   -4.4514  -24.7203 N   0  0  0  0  0  0  0  0  0  0  0  0
  -14.3746   -5.7717  -25.3074 C   0  0  0  0  0  0  0  0  0  0  0  0
  -14.8174   -5.7138  -26.7511 C   0  0  0  0  0  0  0  0  0  0  0  0
  -14.5502   -6.9988  -27.4802 C   0  0  0  0  0  0  0  0  0  0  0  0
  -15.2794   -8.0662  -26.9723 O   0  0  0  0  0  0  0  0  0  0  0  0
  -15.2895   -3.5123  -24.7595 C   0  0  0  0  0  0  0  0  0  0  0  0
  -16.5117   -3.5312  -25.3051 N   0  0  0  0  0  0  0  0  0  0  0  0
  -17.3012   -2.4415  -25.1852 C   0  0  0  0  0  0  0  0  0  0  0  0
  -16.8910   -1.3210  -24.5246 N   0  0  0  0  0  0  0  0  0  0  0  0
  -15.6724   -1.2635  -23.9641 C   0  0  0  0  0  0  0  0  0  0  0  0
  -15.2255   -0.1090  -23.2726 N   0  0  0  0  0  0  0  0  0  0  0  0
  -14.8739   -2.3855  -24.0938 C   0  0  0  0  0  0  0  0  0  0  0  0
  -13.1971   -1.2488  -21.6708 C   0  0  0  0  0  0  0  0  0  0  0  0
  -12.4568   -0.3520  -20.9279 C   0  0  0  0  0  0  0  0  0  0  0  0
  1  2  1  0
  2  3  2  0
  3  4  1  0
  4  5  2  0
  5  6  1  0
  6  7  2  0
  7  8  1  0
  8  9  2  0
  8 10  1  0
 10 11  1  0
  7 12  1  0
 12 13  1  0
 13 14  1  0
 14 15  1  0
 15 16  1  0
 12 17  1  0
 17 18  2  0
 18 19  1  0
 19 20  2  0
 20 21  1  0
 21 22  1  0
 21 23  2  0
  5 24  1  0
 24 25  2  0
 25  2  1  0
 23  6  1  0
 23 17  1  0
M  END
$$$$
