
     RDKit          3D

 17 17  0  0  0  0  0  0  0  0999 V2000
  -18.5975   41.6328  -22.7878 N   0  0  0  0  0  0  0  0  0  0  0  0
  -17.6333   40.7352  -22.2422 C   0  0  0  0  0  0  0  0  0  0  0  0
  -16.5657   40.5111  -22.8719 O   0  0  0  0  0  0  0  0  0  0  0  0
  -17.8244   40.1009  -21.0485 O   0  0  0  0  0  0  0  0  0  0  0  0
  -17.9557   38.6950  -20.9520 C   0  0  0  0  0  0  0  0  0  0  0  0
  -19.2728   38.2668  -21.6288 C   0  0  0  0  0  0  0  0  0  0  0  0
  -20.3638   38.7746  -20.7644 C   0  0  0  0  0  0  0  0  0  0  0  0
  -20.2034   39.9195  -20.0461 O   0  0  0  0  0  0  0  0  0  0  0  0
  -20.5644   41.2093  -20.2105 C   0  0  0  0  0  0  0  0  0  0  0  0
  -19.6238   42.3004  -20.2903 N   0  0  0  0  0  0  0  0  0  0  0  0
  -21.7859   41.4634  -20.2975 O   0  0  0  0  0  0  0  0  0  0  0  0
  -19.2183   36.8071  -21.8563 C   0  0  0  0  0  0  0  0  0  0  0  0
  -20.2953   35.9666  -21.6696 C   0  0  0  0  0  0  0  0  0  0  0  0
  -20.2453   34.6114  -21.9143 C   0  0  0  0  0  0  0  0  0  0  0  0
  -19.0858   34.0185  -22.3689 C   0  0  0  0  0  0  0  0  0  0  0  0
  -17.9934   34.8376  -22.5640 C   0  0  0  0  0  0  0  0  0  0  0  0
  -18.0484   36.1917  -22.3179 C   0  0  0  0  0  0  0  0  0  0  0  0
  1  2  1  0
  2  3  2  0
  2  4  1  0
  4  5  1  0
  5  6  1  0
  6  7  1  0
  7  8  1  0
  8  9  1  0
  9 10  1  0
  9 11  2  0
  6 12  1  0
 12 13  2  0
 13 14  1  0
 14 15  2  0
 15 16  1  0
 16 17  2  0
 17 12  1  0
M  END
$$$$
