
     RDKit          3D

 27 28  0  0  0  0  0  0  0  0999 V2000
    0.9243   17.7167  -21.3034 C   0  0  0  0  0  0  0  0  0  0  0  0
    1.8087   18.4944  -22.2032 C   0  0  1  0  0  0  0  0  0  0  0  0
    2.0966   19.8184  -21.7837 N   0  0  0  0  0  0  0  0  0  0  0  0
    2.2353   20.0916  -20.4051 C   0  0  0  0  0  0  0  0  0  0  0  0
    2.6586   21.5449  -20.2887 C   0  0  0  0  0  0  0  0  0  0  0  0
    2.8458   21.9841  -18.8685 C   0  0  0  0  0  0  0  0  0  0  0  0
    3.2594   23.4061  -18.8976 C   0  0  0  0  0  0  0  0  0  0  0  0
    4.5977   23.7085  -18.9543 C   0  0  0  0  0  0  0  0  0  0  0  0
    5.0337   25.0340  -18.9851 C   0  0  0  0  0  0  0  0  0  0  0  0
    4.0863   26.0343  -18.9573 C   0  0  0  0  0  0  0  0  0  0  0  0
    2.7379   25.7720  -18.9008 C   0  0  0  0  0  0  0  0  0  0  0  0
    1.7267   26.8695  -18.8722 C   0  0  0  0  0  0  0  0  0  0  0  0
    2.2706   27.9861  -18.2718 F   0  0  0  0  0  0  0  0  0  0  0  0
    0.5729   26.4780  -18.2397 F   0  0  0  0  0  0  0  0  0  0  0  0
    1.4862   27.1943  -20.2064 F   0  0  0  0  0  0  0  0  0  0  0  0
    2.3515   24.4346  -18.8717 C   0  0  0  0  0  0  0  0  0  0  0  0
    3.0429   17.8118  -22.6574 C   0  0  0  0  0  0  0  0  0  0  0  0
    4.3071   18.1954  -22.2864 C   0  0  0  0  0  0  0  0  0  0  0  0
    5.4265   17.5482  -22.7484 C   0  0  0  0  0  0  0  0  0  0  0  0
    5.3210   16.4955  -23.5975 C   0  0  0  0  0  0  0  0  0  0  0  0
    4.0439   16.1034  -23.9770 C   0  0  0  0  0  0  0  0  0  0  0  0
    3.9298   15.0217  -24.8504 C   0  0  0  0  0  0  0  0  0  0  0  0
    2.6920   14.6059  -25.2470 C   0  0  0  0  0  0  0  0  0  0  0  0
    1.5568   15.2219  -24.8106 C   0  0  0  0  0  0  0  0  0  0  0  0
    1.6486   16.2951  -23.9450 C   0  0  0  0  0  0  0  0  0  0  0  0
    2.9114   16.7265  -23.5347 C   0  0  0  0  0  0  0  0  0  0  0  0
    2.8274   20.8287  -20.9400 Cl  0  0  0  0  0  0  0  0  0  0  0  0
  2  1  1  1
  2  3  1  0
  3  4  1  0
  4  5  1  0
  5  6  1  0
  6  7  1  0
  7  8  2  0
  8  9  1  0
  9 10  2  0
 10 11  1  0
 11 12  1  0
 12 13  1  0
 12 14  1  0
 12 15  1  0
 11 16  2  0
  2 17  1  0
 17 18  2  0
 18 19  1  0
 19 20  2  0
 20 21  1  0
 21 22  2  0
 22 23  1  0
 23 24  2  0
 24 25  1  0
 25 26  2  0
 16  7  1  0
 26 17  1  0
 26 21  1  0
M  END
$$$$
