
     RDKit          3D

 37 41  0  0  0  0  0  0  0  0999 V2000
  -24.4189   11.9337  -24.5682 C   0  0  0  0  0  0  0  0  0  0  0  0
  -24.5585   12.9136  -23.4438 C   0  0  0  0  0  0  0  0  0  0  0  0
  -23.2887   13.2660  -22.7834 C   0  0  0  0  0  0  0  0  0  0  0  0
  -22.0543   12.8579  -23.2664 C   0  0  0  0  0  0  0  0  0  0  0  0
  -20.8922   13.2132  -22.6149 C   0  0  0  0  0  0  0  0  0  0  0  0
  -20.9890   13.9813  -21.4761 C   0  0  0  0  0  0  0  0  0  0  0  0
  -22.2198   14.4104  -20.9614 C   0  0  0  0  0  0  0  0  0  0  0  0
  -22.2649   15.2309  -19.7287 C   0  0  0  0  0  0  0  0  0  0  0  0
  -21.1165   16.2111  -19.6722 C   0  0  0  0  0  0  0  0  0  0  0  0
  -23.3643   14.0446  -21.6269 C   0  0  0  0  0  0  0  0  0  0  0  0
  -24.6217   14.4617  -21.1363 N   0  0  0  0  0  0  0  0  0  0  0  0
  -25.2054   15.6987  -21.5099 C   0  0  0  0  0  0  0  0  0  0  0  0
  -24.4998   16.5033  -22.1720 O   0  0  0  0  0  0  0  0  0  0  0  0
  -26.5434   15.9903  -21.1338 N   0  0  0  0  0  0  0  0  0  0  0  0
  -27.2171   17.2582  -21.3692 C   0  0  0  0  0  0  0  0  0  0  0  0
  -28.6418   17.0007  -21.1451 C   0  0  0  0  0  0  0  0  0  0  0  0
  -29.8740   17.5115  -21.2487 N   0  0  0  0  0  0  0  0  0  0  0  0
  -30.7543   16.6095  -20.8067 N   0  0  0  0  0  0  0  0  0  0  0  0
  -30.1131   15.4991  -20.4088 C   0  0  0  0  0  0  0  0  0  0  0  0
  -30.6814   14.3164  -19.8747 N   0  0  0  0  0  0  0  0  0  0  0  0
  -31.0931   13.2799  -20.7457 C   0  0  0  0  0  0  0  0  0  0  0  0
  -30.9352   13.4864  -21.9935 O   0  0  0  0  0  0  0  0  0  0  0  0
  -31.6773   12.0129  -20.2836 C   0  0  0  0  0  0  0  0  0  0  0  0
  -31.3215   10.8121  -20.8610 C   0  0  0  0  0  0  0  0  0  0  0  0
  -31.8724    9.6036  -20.4176 C   0  0  0  0  0  0  0  0  0  0  0  0
  -32.7881    9.5539  -19.3932 C   0  0  0  0  0  0  0  0  0  0  0  0
  -33.3771    8.3653  -18.9083 N   0  0  0  0  0  0  0  0  0  0  0  0
  -34.2802    8.3023  -17.7866 C   0  0  0  0  0  0  0  0  0  0  0  0
  -35.6616    8.0801  -18.3783 C   0  0  0  0  0  0  0  0  0  0  0  0
  -35.4832    7.2013  -19.5179 N   0  0  0  0  0  0  0  0  0  0  0  0
  -36.7105    6.6004  -19.9361 C   0  0  0  0  0  0  0  0  0  0  0  0
  -34.3861    6.2653  -19.3499 C   0  0  0  0  0  0  0  0  0  0  0  0
  -33.1013    7.0906  -19.5532 C   0  0  0  0  0  0  0  0  0  0  0  0
  -33.1411   10.7783  -18.8158 C   0  0  0  0  0  0  0  0  0  0  0  0
  -32.5915   11.9815  -19.2584 C   0  0  0  0  0  0  0  0  0  0  0  0
  -28.7708   15.7187  -20.6121 C   0  0  0  0  0  0  0  0  0  0  0  0
  -27.4314   15.0862  -20.4691 C   0  0  0  0  0  0  0  0  0  0  0  0
  1  2  1  0
  2  3  1  0
  3  4  2  0
  4  5  1  0
  5  6  2  0
  6  7  1  0
  7  8  1  0
  8  9  1  0
  7 10  2  0
 10 11  1  0
 11 12  1  0
 12 13  2  0
 12 14  1  0
 14 15  1  0
 15 16  1  0
 16 17  1  0
 17 18  1  0
 18 19  2  0
 19 20  1  0
 20 21  1  0
 21 22  2  0
 21 23  1  0
 23 24  2  0
 24 25  1  0
 25 26  2  0
 26 27  1  0
 27 28  1  0
 28 29  1  0
 29 30  1  0
 30 31  1  0
 30 32  1  0
 32 33  1  0
 26 34  1  0
 34 35  2  0
 19 36  1  0
 36 37  1  0
 10  3  1  0
 37 14  1  0
 36 16  2  0
 35 23  1  0
 33 27  1  0
M  END
$$$$
