
     RDKit          3D

 32 35  0  0  0  0  0  0  0  0999 V2000
  -23.7264    2.0566  -28.8430 C   0  0  0  0  0  0  0  0  0  0  0  0
  -22.4861    2.5681  -29.2871 O   0  0  0  0  0  0  0  0  0  0  0  0
  -21.7304    1.7606  -30.1393 C   0  0  0  0  0  0  0  0  0  0  0  0
  -21.6955    0.3807  -30.0034 C   0  0  0  0  0  0  0  0  0  0  0  0
  -20.9419   -0.3975  -30.8569 C   0  0  0  0  0  0  0  0  0  0  0  0
  -20.8878   -1.7418  -30.7500 N   0  0  0  0  0  0  0  0  0  0  0  0
  -20.1577   -2.5150  -31.5744 C   0  0  0  0  0  0  0  0  0  0  0  0
  -19.4290   -1.9095  -32.5770 C   0  0  0  0  0  0  0  0  0  0  0  0
  -19.4747   -0.5362  -32.6983 C   0  0  0  0  0  0  0  0  0  0  0  0
  -18.7671    0.1468  -33.6843 O   0  0  0  0  0  0  0  0  0  0  0  0
  -17.6213   -0.4601  -34.1896 C   0  0  0  0  0  0  0  0  0  0  0  0
  -17.6846   -1.3466  -35.2599 C   0  0  0  0  0  0  0  0  0  0  0  0
  -16.5455   -1.9457  -35.7572 C   0  0  0  0  0  0  0  0  0  0  0  0
  -15.2935   -1.6812  -35.2022 C   0  0  0  0  0  0  0  0  0  0  0  0
  -14.1059   -2.2900  -35.7019 N   0  0  0  0  0  0  0  0  0  0  0  0
  -13.8666   -2.2307  -37.1176 C   0  0  0  0  0  0  0  0  0  0  0  0
  -14.5561   -1.4991  -37.8769 O   0  0  0  0  0  0  0  0  0  0  0  0
  -12.8353   -3.0052  -37.6956 N   0  0  0  0  0  0  0  0  0  0  0  0
  -12.2610   -2.6928  -38.9606 C   0  0  0  0  0  0  0  0  0  0  0  0
  -12.9532   -2.4909  -40.1337 C   0  0  0  0  0  0  0  0  0  0  0  0
  -11.9952   -2.2151  -41.0999 C   0  0  0  0  0  0  0  0  0  0  0  0
  -12.3362   -1.9345  -42.5230 C   0  0  0  0  0  0  0  0  0  0  0  0
  -10.8342   -2.2573  -40.5148 O   0  0  0  0  0  0  0  0  0  0  0  0
  -10.9686   -2.5379  -39.2507 N   0  0  0  0  0  0  0  0  0  0  0  0
  -15.2215   -0.8073  -34.1454 C   0  0  0  0  0  0  0  0  0  0  0  0
  -13.6559   -0.4560  -33.4270 Cl  0  0  0  0  0  0  0  0  0  0  0  0
  -16.3672   -0.2144  -33.6567 C   0  0  0  0  0  0  0  0  0  0  0  0
  -20.2335    0.2609  -31.8406 C   0  0  0  0  0  0  0  0  0  0  0  0
  -20.2670    1.6337  -31.9773 C   0  0  0  0  0  0  0  0  0  0  0  0
  -21.0198    2.4131  -31.1250 C   0  0  0  0  0  0  0  0  0  0  0  0
  -21.0638    3.8010  -31.2504 O   0  0  0  0  0  0  0  0  0  0  0  0
  -20.3522    4.4296  -32.3127 C   0  0  0  0  0  0  0  0  0  0  0  0
  1  2  1  0
  2  3  1  0
  3  4  2  0
  4  5  1  0
  5  6  2  0
  6  7  1  0
  7  8  2  0
  8  9  1  0
  9 10  1  0
 10 11  1  0
 11 12  2  0
 12 13  1  0
 13 14  2  0
 14 15  1  0
 15 16  1  0
 16 17  2  0
 16 18  1  0
 18 19  1  0
 19 20  1  0
 20 21  2  0
 21 22  1  0
 21 23  1  0
 23 24  1  0
 14 25  1  0
 25 26  1  0
 25 27  2  0
  9 28  2  0
 28 29  1  0
 29 30  2  0
 30 31  1  0
 31 32  1  0
 30  3  1  0
 28  5  1  0
 27 11  1  0
 24 19  2  0
M  END
$$$$
