
     RDKit          3D

 31 34  0  0  0  0  0  0  0  0999 V2000
  -22.6547   13.5233  -29.0661 C   0  0  0  0  0  0  0  0  0  0  0  0
  -22.2040   14.6955  -29.8083 N   0  0  0  0  0  0  0  0  0  0  0  0
  -22.9838   15.5031  -30.4946 N   0  0  0  0  0  0  0  0  0  0  0  0
  -22.2949   16.4843  -31.0735 C   0  0  0  0  0  0  0  0  0  0  0  0
  -20.9779   16.2721  -30.7198 C   0  0  0  0  0  0  0  0  0  0  0  0
  -20.9571   15.1492  -29.9310 C   0  0  0  0  0  0  0  0  0  0  0  0
  -19.7991   14.5968  -29.3438 N   0  0  0  0  0  0  0  0  0  0  0  0
  -18.5162   14.8510  -29.8747 C   0  0  0  0  0  0  0  0  0  0  0  0
  -17.4531   14.2825  -29.2602 N   0  0  0  0  0  0  0  0  0  0  0  0
  -16.2028   14.4610  -29.7107 C   0  0  0  0  0  0  0  0  0  0  0  0
  -16.0349   15.2527  -30.8343 C   0  0  0  0  0  0  0  0  0  0  0  0
  -17.0874   15.8452  -31.4839 C   0  0  0  0  0  0  0  0  0  0  0  0
  -16.9078   16.6643  -32.6662 C   0  0  0  0  0  0  0  0  0  0  0  0
  -17.8731   16.6814  -33.6512 C   0  0  0  0  0  0  0  0  0  0  0  0
  -17.7364   17.4399  -34.8102 C   0  0  0  0  0  0  0  0  0  0  0  0
  -16.6447   18.1927  -35.0117 N   0  0  0  0  0  0  0  0  0  0  0  0
  -16.4813   18.9897  -36.2107 C   0  0  2  0  0  0  0  0  0  0  0  0
  -17.8433   19.3029  -36.7298 C   0  0  0  0  0  0  0  0  0  0  0  0
  -18.5260   20.2889  -36.0369 O   0  0  0  0  0  0  0  0  0  0  0  0
  -15.6188   18.2243  -37.1485 C   0  0  0  0  0  0  0  0  0  0  0  0
  -14.4645   18.8205  -37.6069 C   0  0  0  0  0  0  0  0  0  0  0  0
  -13.6530   18.1274  -38.4767 C   0  0  0  0  0  0  0  0  0  0  0  0
  -13.9572   16.8419  -38.9107 C   0  0  0  0  0  0  0  0  0  0  0  0
  -12.9147   15.9745  -40.0209 Cl  0  0  0  0  0  0  0  0  0  0  0  0
  -15.1246   16.2915  -38.4200 C   0  0  0  0  0  0  0  0  0  0  0  0
  -15.4635   15.0308  -38.8210 F   0  0  0  0  0  0  0  0  0  0  0  0
  -15.9615   16.9508  -37.5506 C   0  0  0  0  0  0  0  0  0  0  0  0
  -15.6915   18.1971  -34.0735 C   0  0  0  0  0  0  0  0  0  0  0  0
  -14.6677   18.8997  -34.2584 O   0  0  0  0  0  0  0  0  0  0  0  0
  -15.8039   17.4431  -32.8996 C   0  0  0  0  0  0  0  0  0  0  0  0
  -18.3139   15.6163  -30.9673 N   0  0  0  0  0  0  0  0  0  0  0  0
  1  2  1  0
  2  3  1  0
  3  4  2  0
  4  5  1  0
  5  6  2  0
  6  7  1  0
  7  8  1  0
  8  9  2  0
  9 10  1  0
 10 11  2  0
 11 12  1  0
 12 13  1  0
 13 14  1  0
 14 15  2  0
 15 16  1  0
 16 17  1  0
 17 18  1  6
 18 19  1  0
 17 20  1  0
 20 21  2  0
 21 22  1  0
 22 23  2  0
 23 24  1  0
 23 25  1  0
 25 26  1  0
 25 27  2  0
 16 28  1  0
 28 29  2  0
 28 30  1  0
 12 31  2  0
  6  2  1  0
 31  8  1  0
 30 13  2  0
 27 20  1  0
M  END
$$$$
