
     RDKit          3D

 32 36  0  0  0  0  0  0  0  0999 V2000
  -27.7956   22.5054  -28.3090 C   0  0  0  0  0  0  0  0  0  0  0  0
  -26.4123   22.9817  -28.2825 C   0  0  0  0  0  0  0  0  0  0  0  0
  -25.2328   23.4091  -28.2648 C   0  0  0  0  0  0  0  0  0  0  0  0
  -23.8769   23.9162  -28.2270 C   0  0  2  0  0  0  0  0  0  0  0  0
  -23.2238   23.5108  -27.0763 O   0  0  0  0  0  0  0  0  0  0  0  0
  -23.7658   25.4227  -28.3530 C   0  0  0  0  0  0  0  0  0  0  0  0
  -23.1120   25.6516  -29.7665 C   0  0  0  0  0  0  0  0  0  0  0  0
  -23.5569   24.4350  -30.4436 C   0  0  1  0  0  0  0  0  0  0  0  0
  -23.0278   23.9799  -31.7645 C   0  0  2  0  0  0  0  0  0  0  0  0
  -22.7097   25.0943  -32.6314 C   0  0  0  0  0  0  0  0  0  0  0  0
  -22.8493   24.7350  -34.0797 C   0  0  0  0  0  0  0  0  0  0  0  0
  -24.2155   24.1363  -34.2284 C   0  0  0  0  0  0  0  0  0  0  0  0
  -25.0158   24.5928  -35.1729 C   0  0  0  0  0  0  0  0  0  0  0  0
  -26.3131   24.0209  -35.3286 C   0  0  0  0  0  0  0  0  0  0  0  0
  -27.3345   24.6618  -35.5960 O   0  0  0  0  0  0  0  0  0  0  0  0
  -26.3191   22.5544  -35.1365 C   0  0  0  0  0  0  0  0  0  0  0  0
  -25.6500   22.1343  -33.8767 C   0  0  0  0  0  0  0  0  0  0  0  0
  -24.6278   23.0552  -33.3278 C   0  0  0  0  0  0  0  0  0  0  0  0
  -24.0249   22.9252  -32.1784 C   0  0  0  0  0  0  0  0  0  0  0  0
  -24.2678   21.8335  -31.2401 C   0  0  1  0  0  0  0  0  0  0  0  0
  -23.6643   20.5547  -31.6135 C   0  0  0  0  0  0  0  0  0  0  0  0
  -22.3085   20.3428  -31.5915 C   0  0  0  0  0  0  0  0  0  0  0  0
  -21.7032   19.1259  -31.9005 C   0  0  0  0  0  0  0  0  0  0  0  0
  -22.4708   18.0591  -32.2565 C   0  0  0  0  0  0  0  0  0  0  0  0
  -21.8536   16.8307  -32.5227 N   0  0  0  0  0  0  0  0  0  0  0  0
  -20.4080   16.7042  -32.4213 C   0  0  0  0  0  0  0  0  0  0  0  0
  -22.5764   15.6871  -33.0359 C   0  0  0  0  0  0  0  0  0  0  0  0
  -23.8615   18.2618  -32.2817 C   0  0  0  0  0  0  0  0  0  0  0  0
  -24.4257   19.4310  -31.9764 C   0  0  0  0  0  0  0  0  0  0  0  0
  -23.7992   22.0848  -29.8447 C   0  0  0  0  0  0  0  0  0  0  0  0
  -23.1983   23.3617  -29.4368 C   0  0  2  0  0  0  0  0  0  0  0  0
  -21.7324   23.3006  -29.1049 C   0  0  0  0  0  0  0  0  0  0  0  0
  1  2  1  0
  2  3  3  0
  3  4  1  0
  4  5  1  1
  4  6  1  0
  6  7  1  0
  8  7  1  1
  8  9  1  0
  9 10  1  6
 10 11  1  0
 11 12  1  0
 12 13  2  0
 13 14  1  0
 14 15  2  0
 14 16  1  0
 16 17  1  0
 17 18  1  0
 18 19  2  0
 19 20  1  0
 20 21  1  6
 21 22  2  0
 22 23  1  0
 23 24  2  0
 24 25  1  0
 25 26  1  0
 25 27  1  0
 24 28  1  0
 28 29  2  0
 20 30  1  0
 30 31  1  0
 31 32  1  1
 31  4  1  0
 31  8  1  0
 19  9  1  0
 29 21  1  0
 18 12  1  0
M  END
$$$$
