
     RDKit          3D

 30 31  0  0  0  0  0  0  0  0999 V2000
  -16.7055   16.5541  -38.3449 C   0  0  0  0  0  0  0  0  0  0  0  0
  -17.2090   17.7546  -37.5905 C   0  0  0  0  0  0  0  0  0  0  0  0
  -18.6501   18.0064  -37.9971 C   0  0  0  0  0  0  0  0  0  0  0  0
  -16.4117   18.9850  -37.9354 C   0  0  0  0  0  0  0  0  0  0  0  0
  -16.4899   19.3086  -39.3836 C   0  0  0  0  0  0  0  0  0  0  0  0
  -15.5804   18.7988  -40.2983 C   0  0  0  0  0  0  0  0  0  0  0  0
  -15.6521   19.0964  -41.6419 C   0  0  0  0  0  0  0  0  0  0  0  0
  -16.6334   19.9172  -42.1433 C   0  0  0  0  0  0  0  0  0  0  0  0
  -16.7156   20.2233  -43.4924 C   0  0  0  0  0  0  0  0  0  0  0  0
  -17.7366   21.0554  -43.8953 C   0  0  0  0  0  0  0  0  0  0  0  0
  -18.6718   21.5949  -43.0375 C   0  0  0  0  0  0  0  0  0  0  0  0
  -18.5697   21.2762  -41.7014 C   0  0  0  0  0  0  0  0  0  0  0  0
  -17.5506   20.4354  -41.2423 C   0  0  0  0  0  0  0  0  0  0  0  0
  -17.4750   20.1349  -39.8991 C   0  0  0  0  0  0  0  0  0  0  0  0
  -17.2433   17.5018  -36.1660 N   0  0  0  0  0  0  0  0  0  0  0  0
  -15.9824   17.1806  -35.5972 C   0  0  0  0  0  0  0  0  0  0  0  0
  -16.1673   16.9914  -34.0959 C   0  0  1  0  0  0  0  0  0  0  0  0
  -16.6670   18.2202  -33.5824 O   0  0  0  0  0  0  0  0  0  0  0  0
  -17.1864   15.9591  -33.7417 C   0  0  0  0  0  0  0  0  0  0  0  0
  -17.3394   15.8622  -32.3745 O   0  0  0  0  0  0  0  0  0  0  0  0
  -16.5451   15.4997  -31.3538 C   0  0  0  0  0  0  0  0  0  0  0  0
  -15.2464   15.0691  -31.4392 C   0  0  0  0  0  0  0  0  0  0  0  0
  -14.5224   14.7168  -30.3017 C   0  0  0  0  0  0  0  0  0  0  0  0
  -15.0915   14.7898  -29.0502 C   0  0  0  0  0  0  0  0  0  0  0  0
  -16.3874   15.2160  -28.9372 C   0  0  0  0  0  0  0  0  0  0  0  0
  -17.1023   15.3046  -27.3394 Cl  0  0  0  0  0  0  0  0  0  0  0  0
  -17.0970   15.5624  -30.0605 C   0  0  0  0  0  0  0  0  0  0  0  0
  -18.4600   16.0052  -29.8954 C   0  0  0  0  0  0  0  0  0  0  0  0
  -19.5688   16.3555  -29.7795 N   0  0  0  0  0  0  0  0  0  0  0  0
  -16.9325   18.0101  -37.2115 Cl  0  0  0  0  0  0  0  0  0  0  0  0
  1  2  1  0
  2  3  1  0
  2  4  1  0
  4  5  1  0
  5  6  2  0
  6  7  1  0
  7  8  2  0
  8  9  1  0
  9 10  2  0
 10 11  1  0
 11 12  2  0
 12 13  1  0
 13 14  2  0
  2 15  1  0
 15 16  1  0
 16 17  1  0
 17 18  1  1
 17 19  1  0
 19 20  1  0
 20 21  1  0
 21 22  2  0
 22 23  1  0
 23 24  2  0
 24 25  1  0
 25 26  1  0
 25 27  2  0
 27 28  1  0
 28 29  3  0
 14  5  1  0
 27 21  1  0
 13  8  1  0
M  END
$$$$
