
     RDKit          3D

 22 23  0  0  0  0  0  0  0  0999 V2000
  -22.3859   15.8495  -32.2274 C   0  0  0  0  0  0  0  0  0  0  0  0
  -22.0149   17.1697  -31.6046 C   0  0  0  0  0  0  0  0  0  0  0  0
  -23.2565   17.7457  -30.9409 C   0  0  0  0  0  0  0  0  0  0  0  0
  -20.9866   17.1117  -30.6685 O   0  0  0  0  0  0  0  0  0  0  0  0
  -19.7533   16.5662  -30.7830 C   0  0  0  0  0  0  0  0  0  0  0  0
  -18.6829   17.2903  -31.2470 C   0  0  0  0  0  0  0  0  0  0  0  0
  -17.4217   16.7232  -31.3615 C   0  0  0  0  0  0  0  0  0  0  0  0
  -17.2201   15.3893  -31.0019 C   0  0  0  0  0  0  0  0  0  0  0  0
  -15.9026   14.8099  -31.0950 C   0  0  0  0  0  0  0  0  0  0  0  0
  -15.2796   14.9881  -32.2019 O   0  0  0  0  0  0  0  0  0  0  0  0
  -15.2003   14.0508  -30.0912 C   0  0  0  0  0  0  0  0  0  0  0  0
  -13.8495   13.7713  -30.2032 C   0  0  0  0  0  0  0  0  0  0  0  0
  -13.1711   13.0338  -29.2280 C   0  0  0  0  0  0  0  0  0  0  0  0
  -13.8227   12.5578  -28.1192 C   0  0  0  0  0  0  0  0  0  0  0  0
  -12.9949   11.6278  -26.8703 Cl  0  0  0  0  0  0  0  0  0  0  0  0
  -15.1761   12.8333  -27.9996 C   0  0  0  0  0  0  0  0  0  0  0  0
  -15.8448   13.5641  -28.9662 C   0  0  0  0  0  0  0  0  0  0  0  0
  -18.2774   14.6577  -30.5388 C   0  0  0  0  0  0  0  0  0  0  0  0
  -19.5315   15.2540  -30.4346 C   0  0  0  0  0  0  0  0  0  0  0  0
  -21.5718   18.0484  -32.7236 C   0  0  0  0  0  0  0  0  0  0  0  0
  -21.4492   17.6096  -33.9041 O   0  0  0  0  0  0  0  0  0  0  0  0
  -21.2800   19.3746  -32.4986 O   0  0  0  0  0  0  0  0  0  0  0  0
  1  2  1  0
  2  3  1  0
  2  4  1  0
  4  5  1  0
  5  6  2  0
  6  7  1  0
  7  8  2  0
  8  9  1  0
  9 10  2  0
  9 11  1  0
 11 12  2  0
 12 13  1  0
 13 14  2  0
 14 15  1  0
 14 16  1  0
 16 17  2  0
  8 18  1  0
 18 19  2  0
  2 20  1  0
 20 21  2  0
 20 22  1  0
 19  5  1  0
 17 11  1  0
M  END
$$$$
