
     RDKit          3D

 28 29  0  0  0  0  0  0  0  0999 V2000
  -19.9105   41.3091  -23.8008 C   0  0  0  0  0  0  0  0  0  0  0  0
  -20.0169   40.8067  -22.4271 C   0  0  0  0  0  0  0  0  0  0  0  0
  -21.2498   40.2658  -22.0476 C   0  0  0  0  0  0  0  0  0  0  0  0
  -21.4257   39.7419  -20.7987 C   0  0  0  0  0  0  0  0  0  0  0  0
  -20.3673   39.7555  -19.9188 C   0  0  0  0  0  0  0  0  0  0  0  0
  -20.5446   39.2089  -18.6122 N   0  0  0  0  0  4  0  0  0  0  0  0
  -19.6173   39.2019  -17.7910 O   0  0  0  0  0  0  0  0  0  0  0  0
  -21.7457   38.6782  -18.2344 O   0  0  0  0  0  1  0  0  0  0  0  0
  -19.1783   40.2878  -20.3115 C   0  0  0  0  0  0  0  0  0  0  0  0
  -18.9473   40.8372  -21.5790 C   0  0  0  0  0  0  0  0  0  0  0  0
  -17.3921   41.5236  -21.9340 S   0  0  0  0  0  6  0  0  0  0  0  0
  -16.8019   40.8386  -23.1744 O   0  0  0  0  0  0  0  0  0  0  0  0
  -16.4021   41.1279  -20.8347 O   0  0  0  0  0  0  0  0  0  0  0  0
  -17.3665   43.2191  -22.1105 N   0  0  0  0  0  0  0  0  0  0  0  0
  -18.1077   43.8989  -23.1266 C   0  0  0  0  0  0  0  0  0  0  0  0
  -16.6000   44.0153  -21.2419 N   0  0  0  0  0  0  0  0  0  0  0  0
  -16.5116   43.8304  -19.9878 C   0  0  0  0  0  0  0  0  0  0  0  0
  -15.7160   44.6572  -19.0882 C   0  0  0  0  0  0  0  0  0  0  0  0
  -16.2162   45.6325  -18.2637 C   0  0  0  0  0  0  0  0  0  0  0  0
  -15.1687   46.1675  -17.5940 N   0  0  0  0  0  0  0  0  0  0  0  0
  -14.0208   45.5461  -17.9829 C   0  0  0  0  0  0  0  0  0  0  0  0
  -12.6958   45.6908  -17.6304 C   0  0  0  0  0  0  0  0  0  0  0  0
  -11.7278   44.8972  -18.2091 C   0  0  0  0  0  0  0  0  0  0  0  0
  -12.1413   43.9689  -19.1402 C   0  0  0  0  0  0  0  0  0  0  0  0
  -10.8841   42.8392  -19.9838 Br  0  0  0  0  0  0  0  0  0  0  0  0
  -13.4795   43.8296  -19.4898 C   0  0  0  0  0  0  0  0  0  0  0  0
  -14.3826   44.6212  -18.9024 N   0  0  0  0  0  0  0  0  0  0  0  0
  -16.6804   42.8988  -20.3211 Cl  0  0  0  0  0  0  0  0  0  0  0  0
  1  2  1  0
  2  3  2  0
  3  4  1  0
  4  5  2  0
  5  6  1  0
  6  7  2  0
  6  8  1  0
  5  9  1  0
  9 10  2  0
 10 11  1  0
 11 12  2  0
 11 13  2  0
 11 14  1  0
 14 15  1  0
 14 16  1  0
 16 17  2  0
 17 18  1  0
 18 19  2  0
 19 20  1  0
 20 21  2  0
 21 22  1  0
 22 23  2  0
 23 24  1  0
 24 25  1  0
 24 26  2  0
 26 27  1  0
 10  2  1  0
 27 18  1  0
 27 21  1  0
M  CHG  2   6   1   8  -1
M  END
$$$$
