
     RDKit          3D

 10 10  0  0  0  0  0  0  0  0999 V2000
  -17.4317   39.6951  -22.7361 O   0  0  0  0  0  0  0  0  0  0  0  0
  -18.1077   38.4854  -22.9427 C   0  0  0  0  0  0  0  0  0  0  0  0
  -18.0011   37.6868  -21.6576 C   0  0  0  0  0  0  0  0  0  0  0  0
  -18.7131   36.3920  -21.7548 C   0  0  0  0  0  0  0  0  0  0  0  0
  -18.0481   35.2395  -22.1015 C   0  0  0  0  0  0  0  0  0  0  0  0
  -18.7127   34.0154  -22.1951 C   0  0  0  0  0  0  0  0  0  0  0  0
  -20.0458   33.9412  -21.9417 C   0  0  0  0  0  0  0  0  0  0  0  0
  -20.7340   32.7333  -22.0276 O   0  0  0  0  0  0  0  0  0  0  0  0
  -20.7314   35.1069  -21.5884 C   0  0  0  0  0  0  0  0  0  0  0  0
  -20.0611   36.3058  -21.5006 C   0  0  0  0  0  0  0  0  0  0  0  0
  1  2  1  0
  2  3  1  0
  3  4  1  0
  4  5  2  0
  5  6  1  0
  6  7  2  0
  7  8  1  0
  7  9  1  0
  9 10  2  0
 10  4  1  0
M  END
$$$$
