
     RDKit          3D

 19 19  0  0  0  0  0  0  0  0999 V2000
   -8.6949   18.5011  -43.9466 C   0  0  0  0  0  0  0  0  0  0  0  0
  -10.0853   18.3599  -43.3210 C   0  0  0  0  0  0  0  0  0  0  0  0
  -10.8303   19.6417  -43.5164 C   0  0  0  0  0  0  0  0  0  0  0  0
   -9.8458   18.0930  -41.8427 C   0  0  0  0  0  0  0  0  0  0  0  0
  -11.1153   17.6899  -41.1641 C   0  0  0  0  0  0  0  0  0  0  0  0
  -12.0415   16.8707  -41.7738 C   0  0  0  0  0  0  0  0  0  0  0  0
  -13.2188   16.5149  -41.1068 C   0  0  0  0  0  0  0  0  0  0  0  0
  -13.4596   16.9818  -39.8351 C   0  0  0  0  0  0  0  0  0  0  0  0
  -14.6829   16.6233  -39.1185 C   0  0  1  0  0  0  0  0  0  0  0  0
  -14.3542   16.1741  -37.7127 C   0  0  0  0  0  0  0  0  0  0  0  0
  -15.7114   17.6786  -39.1174 C   0  0  0  0  0  0  0  0  0  0  0  0
  -15.4683   18.7362  -38.4828 O   0  0  0  0  0  0  0  0  0  0  0  0
  -16.9414   17.5122  -39.8097 N   0  0  0  0  0  0  0  0  0  0  0  0
  -18.1646   18.7413  -39.7708 S   0  0  0  0  0  6  0  0  0  0  0  0
  -17.6987   20.0692  -40.8289 C   0  0  0  0  0  0  0  0  0  0  0  0
  -18.3013   19.2916  -38.3726 O   0  0  0  0  0  0  0  0  0  0  0  0
  -19.4906   18.2168  -40.2396 O   0  0  0  0  0  0  0  0  0  0  0  0
  -12.5248   17.7975  -39.2431 C   0  0  0  0  0  0  0  0  0  0  0  0
  -11.3456   18.1643  -39.8892 C   0  0  0  0  0  0  0  0  0  0  0  0
  1  2  1  0
  2  3  1  0
  2  4  1  0
  4  5  1  0
  5  6  2  0
  6  7  1  0
  7  8  2  0
  8  9  1  0
  9 10  1  1
  9 11  1  0
 11 12  2  0
 11 13  1  0
 13 14  1  0
 14 15  1  0
 14 16  2  0
 14 17  2  0
  8 18  1  0
 18 19  2  0
 19  5  1  0
M  END
$$$$
