
     RDKit          3D

 23 25  0  0  0  0  0  0  0  0999 V2000
  -12.9264   45.5827  -19.5607 C   0  0  0  0  0  0  0  0  0  0  0  0
  -13.7672   44.6859  -18.7202 C   0  0  0  0  0  0  0  0  0  0  0  0
  -13.2855   44.0370  -17.6232 N   0  0  0  0  0  0  0  0  0  0  0  0
  -14.2766   43.3050  -17.0715 C   0  0  0  0  0  0  0  0  0  0  0  0
  -15.3628   43.5139  -17.8389 N   0  0  0  0  0  0  0  0  0  0  0  0
  -15.0876   44.3550  -18.8591 C   0  0  0  0  0  0  0  0  0  0  0  0
  -16.0094   44.8352  -19.8968 C   0  0  0  0  0  0  0  0  0  0  0  0
  -17.1154   43.9258  -20.1543 N   0  0  0  0  0  0  0  0  0  0  0  0
  -18.3119   44.0640  -19.3702 C   0  0  0  0  0  0  0  0  0  0  0  0
  -19.5556   43.4540  -19.9025 C   0  0  0  0  0  0  0  0  0  0  0  0
  -19.3990   42.4094  -20.9297 C   0  0  0  0  0  0  0  0  0  0  0  0
  -18.2031   42.1343  -21.5339 C   0  0  0  0  0  0  0  0  0  0  0  0
  -18.4197   41.1099  -22.4313 C   0  0  0  0  0  0  0  0  0  0  0  0
  -17.6076   40.4292  -23.3005 C   0  0  0  0  0  0  0  0  0  0  0  0
  -18.0926   39.4105  -24.1109 C   0  0  0  0  0  0  0  0  0  0  0  0
  -19.4365   39.0895  -24.0214 C   0  0  0  0  0  0  0  0  0  0  0  0
  -20.2535   39.7853  -23.1365 C   0  0  0  0  0  0  0  0  0  0  0  0
  -19.7575   40.7988  -22.3347 C   0  0  0  0  0  0  0  0  0  0  0  0
  -20.3676   41.5946  -21.4132 N   0  0  0  0  0  0  0  0  0  0  0  0
  -21.7733   41.5718  -21.0371 C   0  0  0  0  0  0  0  0  0  0  0  0
  -17.0341   42.9112  -21.1366 C   0  0  0  0  0  0  0  0  0  0  0  0
  -15.9302   42.6445  -21.7042 O   0  0  0  0  0  0  0  0  0  0  0  0
  -17.8606   42.3067  -20.9549 Cl  0  0  0  0  0  0  0  0  0  0  0  0
  1  2  1  0
  2  3  1  0
  3  4  1  0
  4  5  2  0
  5  6  1  0
  6  7  1  0
  7  8  1  0
  8  9  1  0
  9 10  1  0
 10 11  1  0
 11 12  2  0
 12 13  1  0
 13 14  2  0
 14 15  1  0
 15 16  2  0
 16 17  1  0
 17 18  2  0
 18 19  1  0
 19 20  1  0
 12 21  1  0
 21 22  2  0
  6  2  2  0
 21  8  1  0
 19 11  1  0
 18 13  1  0
M  END
$$$$
