
     RDKit          3D

 23 25  0  0  0  0  0  0  0  0999 V2000
  -22.0715   19.5539  -31.2028 O   0  0  0  0  0  0  0  0  0  0  0  0
  -21.1896   18.8848  -31.8455 C   0  0  0  0  0  0  0  0  0  0  0  0
  -19.9034   18.7224  -31.2484 N   0  0  0  0  0  0  0  0  0  0  0  0
  -18.8892   17.9871  -31.9232 C   0  0  0  0  0  0  0  0  0  0  0  0
  -17.5533   17.8198  -31.3005 C   0  0  0  0  0  0  0  0  0  0  0  0
  -16.8988   18.9269  -30.8341 C   0  0  0  0  0  0  0  0  0  0  0  0
  -15.6455   18.8288  -30.2418 C   0  0  0  0  0  0  0  0  0  0  0  0
  -15.0791   17.5855  -30.1368 C   0  0  0  0  0  0  0  0  0  0  0  0
  -15.7064   16.4507  -30.5939 C   0  0  0  0  0  0  0  0  0  0  0  0
  -15.0855   15.1791  -30.4664 N   0  0  0  0  0  4  0  0  0  0  0  0
  -14.0168   14.9667  -31.0579 O   0  0  0  0  0  0  0  0  0  0  0  0
  -15.6421   14.1919  -29.7078 O   0  0  0  0  0  1  0  0  0  0  0  0
  -16.9530   16.6001  -31.1759 C   0  0  0  0  0  0  0  0  0  0  0  0
  -19.1761   17.4730  -33.0943 C   0  0  0  0  0  0  0  0  0  0  0  0
  -20.4686   17.5751  -33.8095 C   0  0  0  0  0  0  0  0  0  0  0  0
  -21.4721   18.3204  -33.1086 N   0  0  0  0  0  0  0  0  0  0  0  0
  -22.7446   18.4656  -33.7284 C   0  0  0  0  0  0  0  0  0  0  0  0
  -23.6505   17.4183  -33.7642 C   0  0  0  0  0  0  0  0  0  0  0  0
  -24.8737   17.5957  -34.3732 C   0  0  0  0  0  0  0  0  0  0  0  0
  -25.1641   18.8238  -34.9356 C   0  0  0  0  0  0  0  0  0  0  0  0
  -24.2780   19.8784  -34.9111 C   0  0  0  0  0  0  0  0  0  0  0  0
  -23.0576   19.6858  -34.2980 C   0  0  0  0  0  0  0  0  0  0  0  0
  -22.1062   20.7228  -34.2381 O   0  0  0  0  0  0  0  0  0  0  0  0
  1  2  2  0
  2  3  1  0
  3  4  1  0
  4  5  1  0
  5  6  2  0
  6  7  1  0
  7  8  2  0
  8  9  1  0
  9 10  1  0
 10 11  2  0
 10 12  1  0
  9 13  2  0
  4 14  2  0
 14 15  1  0
 15 16  1  0
 16 17  1  0
 17 18  2  0
 18 19  1  0
 19 20  2  0
 20 21  1  0
 21 22  2  0
 22 23  1  0
 16  2  1  0
 22 17  1  0
 13  5  1  0
M  CHG  2  10   1  12  -1
M  END
$$$$
