
     RDKit          3D

 57 63  0  0  0  0  0  0  0  0999 V2000
  -17.2717   44.0423  -24.3042 C   0  0  0  0  0  0  0  0  0  0  0  0
  -17.8623   43.4240  -23.0944 C   0  0  0  0  0  0  0  0  0  0  0  0
  -17.9435   44.1222  -21.9203 C   0  0  0  0  0  0  0  0  0  0  0  0
  -17.4250   45.5411  -21.8227 C   0  0  0  0  0  0  0  0  0  0  0  0
  -16.2313   45.7460  -21.0956 C   0  0  0  0  0  0  0  0  0  0  0  0
  -15.4038   44.7972  -20.4239 C   0  0  0  0  0  0  0  0  0  0  0  0
  -14.1058   45.0371  -20.0150 C   0  0  0  0  0  0  0  0  0  0  0  0
  -13.6267   43.8897  -19.4016 C   0  0  0  0  0  0  0  0  0  0  0  0
  -14.6703   42.9942  -19.4680 C   0  0  0  0  0  0  0  0  0  0  0  0
  -14.6746   41.7099  -18.9898 F   0  0  0  0  0  0  0  0  0  0  0  0
  -15.6779   43.5595  -20.0666 O   0  0  0  0  0  0  0  0  0  0  0  0
  -15.9765   47.5399  -21.2047 S   0  0  0  0  0  0  0  0  0  0  0  0
  -17.4633   47.8556  -22.1967 C   0  0  0  0  0  0  0  0  0  0  0  0
  -17.9345   49.0192  -22.6700 N   0  0  0  0  0  0  0  0  0  0  0  0
  -19.0709   48.9989  -23.3875 C   0  0  0  0  0  0  0  0  0  0  0  0
  -19.6432   47.8181  -23.5742 N   0  0  0  0  0  0  0  0  0  0  0  0
  -19.2033   46.6385  -23.1188 C   0  0  0  0  0  0  0  0  0  0  0  0
  -19.9042   45.5005  -23.3977 O   0  0  0  0  0  0  0  0  0  0  0  0
  -20.9207   45.3042  -24.3228 C   0  0  2  0  0  0  0  0  0  0  0  0
  -22.1469   44.6786  -23.7555 C   0  0  0  0  0  0  0  0  0  0  0  0
  -22.8277   45.4307  -22.6979 C   0  0  0  0  0  0  0  0  0  0  0  0
  -23.8301   46.2761  -23.0822 C   0  0  0  0  0  0  0  0  0  0  0  0
  -24.5303   47.0407  -22.1877 C   0  0  0  0  0  0  0  0  0  0  0  0
  -24.2174   46.9598  -20.8415 C   0  0  0  0  0  0  0  0  0  0  0  0
  -23.2111   46.1094  -20.4647 C   0  0  0  0  0  0  0  0  0  0  0  0
  -22.4849   45.3206  -21.3685 C   0  0  0  0  0  0  0  0  0  0  0  0
  -21.5007   44.4930  -20.9470 O   0  0  0  0  0  0  0  0  0  0  0  0
  -20.8646   44.1915  -19.7902 C   0  0  0  0  0  0  0  0  0  0  0  0
  -19.4884   43.6848  -19.8470 C   0  0  0  0  0  0  0  0  0  0  0  0
  -18.3496   44.4605  -19.9771 C   0  0  0  0  0  0  0  0  0  0  0  0
  -17.2730   43.6008  -19.9415 C   0  0  0  0  0  0  0  0  0  0  0  0
  -17.7774   42.3839  -19.7959 N   0  0  0  0  0  0  0  0  0  0  0  0
  -19.1071   42.4039  -19.7347 N   0  0  0  0  0  0  0  0  0  0  0  0
  -19.8665   41.1898  -19.5130 C   0  0  0  0  0  0  0  0  0  0  0  0
  -19.0915   40.2567  -18.5742 C   0  0  0  0  0  0  0  0  0  0  0  0
  -18.7193   40.9752  -17.4541 F   0  0  0  0  0  0  0  0  0  0  0  0
  -19.8827   39.1959  -18.1961 F   0  0  0  0  0  0  0  0  0  0  0  0
  -17.9718   39.8761  -19.2530 F   0  0  0  0  0  0  0  0  0  0  0  0
  -20.5553   44.7834  -25.6353 C   0  0  0  0  0  0  0  0  0  0  0  0
  -19.4679   44.3119  -26.0097 O   0  0  0  0  0  0  0  0  0  0  0  0
  -21.5634   44.8213  -26.6231 O   0  0  0  0  0  0  0  0  0  0  0  0
  -17.9964   46.6290  -22.3507 C   0  0  0  0  0  0  0  0  0  0  0  0
  -18.4875   43.5575  -20.7912 C   0  0  0  0  0  0  0  0  0  0  0  0
  -18.9720   42.2793  -20.7816 C   0  0  0  0  0  0  0  0  0  0  0  0
  -18.8926   41.5691  -21.9633 C   0  0  0  0  0  0  0  0  0  0  0  0
  -19.3848   40.2631  -21.9578 O   0  0  0  0  0  0  0  0  0  0  0  0
  -18.5168   39.1580  -21.9453 C   0  0  0  0  0  0  0  0  0  0  0  0
  -19.2782   37.8539  -21.9827 C   0  0  0  0  0  0  0  0  0  0  0  0
  -18.3545   36.8031  -21.6419 N   0  0  0  0  0  0  0  0  0  0  0  0
  -18.9577   35.5327  -21.3825 C   0  0  0  0  0  0  0  0  0  0  0  0
  -19.7179   35.0460  -22.5592 C   0  0  0  0  0  0  0  0  0  0  0  0
  -19.1922   35.3297  -23.8285 N   0  0  0  0  0  0  0  0  0  0  0  0
  -19.4798   34.3695  -24.8500 C   0  0  0  0  0  0  0  0  0  0  0  0
  -17.9474   35.9692  -23.9296 C   0  0  0  0  0  0  0  0  0  0  0  0
  -17.4027   36.6096  -22.7201 C   0  0  0  0  0  0  0  0  0  0  0  0
  -18.3517   42.1202  -23.1004 C   0  0  0  0  0  0  0  0  0  0  0  0
  -18.2676   41.1976  -24.5746 Cl  0  0  0  0  0  0  0  0  0  0  0  0
  1  2  1  0
  2  3  2  0
  3  4  1  0
  4  5  2  0
  5  6  1  0
  6  7  2  0
  7  8  1  0
  8  9  2  0
  9 10  1  0
  9 11  1  0
  5 12  1  0
 12 13  1  0
 13 14  2  0
 14 15  1  0
 15 16  2  0
 16 17  1  0
 17 18  1  0
 18 19  1  0
 19 20  1  1
 20 21  1  0
 21 22  2  0
 22 23  1  0
 23 24  2  0
 24 25  1  0
 25 26  2  0
 26 27  1  0
 27 28  1  0
 28 29  1  0
 29 30  2  0
 30 31  1  0
 31 32  2  0
 32 33  1  0
 33 34  1  0
 34 35  1  0
 35 36  1  0
 35 37  1  0
 35 38  1  0
 19 39  1  0
 39 40  2  0
 39 41  1  0
 17 42  2  0
  3 43  1  0
 43 44  2  0
 44 45  1  0
 45 46  1  0
 46 47  1  0
 47 48  1  0
 48 49  1  0
 49 50  1  0
 50 51  1  0
 51 52  1  0
 52 53  1  0
 52 54  1  0
 54 55  1  0
 45 56  2  0
 56 57  1  0
 56  2  1  0
 42  4  1  0
 55 49  1  0
 11  6  1  0
 42 13  1  0
 26 21  1  0
 33 29  1  0
M  END
$$$$
