
     RDKit          3D

 22 24  0  0  0  0  0  0  0  0999 V2000
  -19.5532   20.1308  -30.5540 C   0  0  0  0  0  0  0  0  0  0  0  0
  -19.5705   18.6426  -30.4922 C   0  0  0  0  0  0  0  0  0  0  0  0
  -18.7776   17.9008  -29.6633 C   0  0  0  0  0  0  0  0  0  0  0  0
  -19.0698   16.5727  -29.8836 C   0  0  0  0  0  0  0  0  0  0  0  0
  -18.4304   15.5101  -29.1906 N   0  0  0  0  0  0  0  0  0  0  0  0
  -17.0099   15.3423  -29.3450 C   0  0  0  0  0  0  0  0  0  0  0  0
  -16.1887   15.9486  -28.6023 O   0  0  0  0  0  0  0  0  0  0  0  0
  -16.4696   14.4823  -30.3455 N   0  0  0  0  0  0  0  0  0  0  0  0
  -15.2384   13.7947  -30.1280 C   0  0  0  0  0  0  0  0  0  0  0  0
  -15.1361   12.4190  -30.1368 C   0  0  0  0  0  0  0  0  0  0  0  0
  -13.9221   11.7725  -29.9217 C   0  0  0  0  0  0  0  0  0  0  0  0
  -12.7703   12.5060  -29.6902 C   0  0  0  0  0  0  0  0  0  0  0  0
  -12.8760   13.8806  -29.6820 C   0  0  0  0  0  0  0  0  0  0  0  0
  -14.0835   14.5127  -29.8961 C   0  0  0  0  0  0  0  0  0  0  0  0
  -20.0180   16.5382  -30.8257 N   0  0  0  0  0  0  0  0  0  0  0  0
  -20.5919   15.3377  -31.3332 C   0  0  0  0  0  0  0  0  0  0  0  0
  -20.8103   14.2498  -30.5193 C   0  0  0  0  0  0  0  0  0  0  0  0
  -21.3643   13.0910  -31.0095 C   0  0  0  0  0  0  0  0  0  0  0  0
  -21.7207   12.9898  -32.3530 C   0  0  0  0  0  0  0  0  0  0  0  0
  -21.5027   14.0776  -33.1685 C   0  0  0  0  0  0  0  0  0  0  0  0
  -20.9462   15.2314  -32.6596 C   0  0  0  0  0  0  0  0  0  0  0  0
  -20.3122   17.7672  -31.1840 N   0  0  0  0  0  0  0  0  0  0  0  0
  1  2  1  0
  2  3  1  0
  3  4  2  0
  4  5  1  0
  5  6  1  0
  6  7  2  0
  6  8  1  0
  8  9  1  0
  9 10  2  0
 10 11  1  0
 11 12  2  0
 12 13  1  0
 13 14  2  0
  4 15  1  0
 15 16  1  0
 16 17  2  0
 17 18  1  0
 18 19  2  0
 19 20  1  0
 20 21  2  0
 15 22  1  0
 22  2  2  0
 14  9  1  0
 21 16  1  0
M  END
$$$$
