
     RDKit          3D

 20 22  0  0  0  0  0  0  0  0999 V2000
  -29.9678   24.7977  -38.8058 O   0  0  0  0  0  0  0  0  0  0  0  0
  -29.1507   24.5070  -37.8772 C   0  0  0  0  0  0  0  0  0  0  0  0
  -27.7868   24.4006  -38.1090 C   0  0  0  0  0  0  0  0  0  0  0  0
  -26.9640   24.0828  -37.0556 C   0  0  0  0  0  0  0  0  0  0  0  0
  -25.5345   23.9485  -37.1919 C   0  0  0  0  0  0  0  0  0  0  0  0
  -24.7237   24.1879  -36.0765 C   0  0  0  0  0  0  0  0  0  0  0  0
  -23.3625   24.0593  -36.2092 C   0  0  0  0  0  0  0  0  0  0  0  0
  -22.7475   23.7026  -37.3976 C   0  0  0  0  0  0  0  0  0  0  0  0
  -21.3348   23.5831  -37.4824 N   0  0  0  0  0  4  0  0  0  0  0  0
  -20.7688   22.6166  -36.9431 O   0  0  0  0  0  0  0  0  0  0  0  0
  -20.5896   24.5186  -38.1503 O   0  0  0  0  0  1  0  0  0  0  0  0
  -23.5779   23.4752  -38.4726 C   0  0  0  0  0  0  0  0  0  0  0  0
  -24.9697   23.5946  -38.3826 C   0  0  0  0  0  0  0  0  0  0  0  0
  -27.4895   23.8859  -35.8469 O   0  0  0  0  0  0  0  0  0  0  0  0
  -28.7628   23.9762  -35.5875 C   0  0  0  0  0  0  0  0  0  0  0  0
  -29.2365   23.7544  -34.2896 C   0  0  0  0  0  0  0  0  0  0  0  0
  -30.5768   23.8445  -33.9934 C   0  0  0  0  0  0  0  0  0  0  0  0
  -31.4472   24.1602  -35.0115 C   0  0  0  0  0  0  0  0  0  0  0  0
  -30.9736   24.3766  -36.2839 C   0  0  0  0  0  0  0  0  0  0  0  0
  -29.6356   24.2925  -36.6073 C   0  0  0  0  0  0  0  0  0  0  0  0
  1  2  2  0
  2  3  1  0
  3  4  2  0
  4  5  1  0
  5  6  2  0
  6  7  1  0
  7  8  2  0
  8  9  1  0
  9 10  2  0
  9 11  1  0
  8 12  1  0
 12 13  2  0
  4 14  1  0
 14 15  1  0
 15 16  2  0
 16 17  1  0
 17 18  2  0
 18 19  1  0
 19 20  2  0
 20  2  1  0
 13  5  1  0
 20 15  1  0
M  CHG  2   9   1  11  -1
M  END
$$$$
