
     RDKit          3D

 41 45  0  0  0  0  0  0  0  0999 V2000
  -23.1912   42.3166  -23.6795 C   0  0  0  0  0  0  0  0  0  0  0  0
  -22.7291   40.9662  -23.1756 C   0  0  0  0  0  0  0  0  0  0  0  0
  -21.3829   41.0204  -22.7921 O   0  0  0  0  0  0  0  0  0  0  0  0
  -20.7587   39.8545  -22.3659 C   0  0  0  0  0  0  0  0  0  0  0  0
  -21.2040   38.5620  -22.5220 C   0  0  0  0  0  0  0  0  0  0  0  0
  -20.2809   37.7780  -21.9572 N   0  0  0  0  0  0  0  0  0  0  0  0
  -20.4042   36.3517  -21.9259 C   0  0  0  0  0  0  0  0  0  0  0  0
  -21.4949   35.7884  -21.2998 C   0  0  0  0  0  0  0  0  0  0  0  0
  -21.6599   34.4212  -21.2422 C   0  0  0  0  0  0  0  0  0  0  0  0
  -20.7371   33.5663  -21.8106 C   0  0  0  0  0  0  0  0  0  0  0  0
  -20.8652   32.2275  -21.7740 F   0  0  0  0  0  0  0  0  0  0  0  0
  -19.6427   34.1511  -22.4383 C   0  0  0  0  0  0  0  0  0  0  0  0
  -19.4723   35.5198  -22.4990 C   0  0  0  0  0  0  0  0  0  0  0  0
  -18.2893   36.1283  -23.1782 C   0  0  0  0  0  0  0  0  0  0  0  0
  -19.3004   38.5086  -21.4662 N   0  0  0  0  0  0  0  0  0  0  0  0
  -19.5654   39.7955  -21.7023 C   0  0  0  0  0  0  0  0  0  0  0  0
  -18.7387   40.9684  -21.3273 C   0  0  0  0  0  0  0  0  0  0  0  0
  -19.0847   42.0882  -21.7570 O   0  0  0  0  0  0  0  0  0  0  0  0
  -17.6091   40.8237  -20.5187 N   0  0  0  0  0  0  0  0  0  0  0  0
  -16.8638   41.8756  -19.9326 C   0  0  0  0  0  0  0  0  0  0  0  0
  -16.6030   42.0041  -18.5966 C   0  0  0  0  0  0  0  0  0  0  0  0
  -15.8523   43.0929  -18.1457 C   0  0  0  0  0  0  0  0  0  0  0  0
  -15.3478   44.0635  -18.9703 C   0  0  0  0  0  0  0  0  0  0  0  0
  -14.6072   45.1316  -18.4879 O   0  0  0  0  0  0  0  0  0  0  0  0
  -15.1912   46.1481  -17.7532 C   0  0  0  0  0  0  0  0  0  0  0  0
  -16.3396   46.8033  -18.1455 C   0  0  0  0  0  0  0  0  0  0  0  0
  -16.8828   47.8123  -17.3721 C   0  0  0  0  0  0  0  0  0  0  0  0
  -16.2460   48.1236  -16.2299 N   0  0  0  0  0  0  0  0  0  0  0  0
  -15.1188   47.5011  -15.8173 C   0  0  0  0  0  0  0  0  0  0  0  0
  -14.4849   47.8423  -14.6377 C   0  0  0  0  0  0  0  0  0  0  0  0
  -13.3348   47.2301  -14.1853 C   0  0  0  0  0  0  0  0  0  0  0  0
  -12.7186   47.6066  -12.9772 O   0  0  0  0  0  0  0  0  0  0  0  0
  -13.3168   48.6622  -12.2500 C   0  0  0  0  0  0  0  0  0  0  0  0
  -12.7683   46.2098  -14.9477 C   0  0  0  0  0  0  0  0  0  0  0  0
  -11.6112   45.5892  -14.4990 O   0  0  0  0  0  0  0  0  0  0  0  0
  -10.3679   46.1004  -14.9714 C   0  0  0  0  0  0  0  0  0  0  0  0
  -13.3991   45.8628  -16.1317 C   0  0  0  0  0  0  0  0  0  0  0  0
  -14.5485   46.4912  -16.5612 C   0  0  0  0  0  0  0  0  0  0  0  0
  -15.6110   43.9362  -20.3253 C   0  0  0  0  0  0  0  0  0  0  0  0
  -15.1317   44.8969  -21.1761 F   0  0  0  0  0  0  0  0  0  0  0  0
  -16.3454   42.8745  -20.7854 C   0  0  0  0  0  0  0  0  0  0  0  0
  1  2  1  0
  2  3  1  0
  3  4  1  0
  4  5  2  0
  5  6  1  0
  6  7  1  0
  7  8  2  0
  8  9  1  0
  9 10  2  0
 10 11  1  0
 10 12  1  0
 12 13  2  0
 13 14  1  0
  6 15  1  0
 15 16  2  0
 16 17  1  0
 17 18  2  0
 17 19  1  0
 19 20  1  0
 20 21  2  0
 21 22  1  0
 22 23  2  0
 23 24  1  0
 24 25  1  0
 25 26  2  0
 26 27  1  0
 27 28  2  0
 28 29  1  0
 29 30  2  0
 30 31  1  0
 31 32  1  0
 32 33  1  0
 31 34  2  0
 34 35  1  0
 35 36  1  0
 34 37  1  0
 37 38  2  0
 23 39  1  0
 39 40  1  0
 39 41  2  0
 16  4  1  0
 41 20  1  0
 13  7  1  0
 38 25  1  0
 38 29  1  0
M  END
$$$$
