
     RDKit          3D

 20 21  0  0  0  0  0  0  0  0999 V2000
  -12.0964    9.1545  -26.3543 C   0  0  0  0  0  0  0  0  0  0  0  0
  -12.2039    9.7514  -27.6380 O   0  0  0  0  0  0  0  0  0  0  0  0
  -13.0998   10.7983  -27.8008 C   0  0  0  0  0  0  0  0  0  0  0  0
  -14.2474   10.5401  -28.5082 C   0  0  0  0  0  0  0  0  0  0  0  0
  -15.1967   11.5286  -28.7184 C   0  0  0  0  0  0  0  0  0  0  0  0
  -15.0153   12.8053  -28.2212 C   0  0  0  0  0  0  0  0  0  0  0  0
  -16.0387   13.8174  -28.4645 C   0  0  0  0  0  0  0  0  0  0  0  0
  -16.5800   14.2627  -27.3933 O   0  0  0  0  0  0  0  0  0  0  0  0
  -16.4656   14.3269  -29.7280 C   0  0  0  0  0  0  0  0  0  0  0  0
  -15.9557   13.8624  -30.7793 O   0  0  0  0  0  0  0  0  0  0  0  0
  -17.4662   15.3634  -29.8869 C   0  0  0  0  0  0  0  0  0  0  0  0
  -17.1918   16.6456  -29.4210 C   0  0  0  0  0  0  0  0  0  0  0  0
  -18.0941   17.6657  -29.5413 C   0  0  0  0  0  0  0  0  0  0  0  0
  -19.3260   17.4873  -30.1291 C   0  0  0  0  0  0  0  0  0  0  0  0
  -20.2231   18.5468  -30.2365 O   0  0  0  0  0  0  0  0  0  0  0  0
  -19.8078   19.7309  -30.8909 C   0  0  0  0  0  0  0  0  0  0  0  0
  -19.6376   16.2348  -30.6033 C   0  0  0  0  0  0  0  0  0  0  0  0
  -18.6978   15.2001  -30.4705 C   0  0  0  0  0  0  0  0  0  0  0  0
  -13.8707   13.0529  -27.5187 C   0  0  0  0  0  0  0  0  0  0  0  0
  -12.9208   12.0449  -27.3143 C   0  0  0  0  0  0  0  0  0  0  0  0
  1  2  1  0
  2  3  1  0
  3  4  2  0
  4  5  1  0
  5  6  2  0
  6  7  1  0
  7  8  2  0
  7  9  1  0
  9 10  2  0
  9 11  1  0
 11 12  2  0
 12 13  1  0
 13 14  2  0
 14 15  1  0
 15 16  1  0
 14 17  1  0
 17 18  2  0
  6 19  1  0
 19 20  2  0
 20  3  1  0
 18 11  1  0
M  END
$$$$
