
     RDKit          3D

 23 26  0  0  0  0  0  0  0  0999 V2000
  -22.4898    0.4847  -30.5796 C   0  0  0  0  0  0  0  0  0  0  0  0
  -21.6925    1.5834  -30.9731 O   0  0  0  0  0  0  0  0  0  0  0  0
  -20.3456    1.3986  -31.2969 C   0  0  0  0  0  0  0  0  0  0  0  0
  -19.4178    2.4113  -31.1295 C   0  0  0  0  0  0  0  0  0  0  0  0
  -18.0886    2.2081  -31.4561 C   0  0  0  0  0  0  0  0  0  0  0  0
  -17.6818    0.9881  -31.9526 C   0  0  0  0  0  0  0  0  0  0  0  0
  -16.2548    0.7745  -32.3017 C   0  0  0  0  0  0  0  0  0  0  0  0
  -15.5343   -0.3494  -32.2973 C   0  0  0  0  0  0  0  0  0  0  0  0
  -14.2350   -0.2947  -32.6594 C   0  0  0  0  0  0  0  0  0  0  0  0
  -13.3140   -1.3257  -32.7260 N   0  0  0  0  0  0  0  0  0  0  0  0
  -12.0911   -1.1221  -33.0938 N   0  0  0  0  0  0  0  0  0  0  0  0
  -11.5740    0.0607  -33.4442 C   0  0  0  0  0  0  0  0  0  0  0  0
  -10.2192    0.3107  -33.8559 C   0  0  0  0  0  0  0  0  0  0  0  0
   -9.8702    1.6288  -34.1036 C   0  0  0  0  0  0  0  0  0  0  0  0
   -8.5993    1.9721  -34.5022 C   0  0  0  0  0  0  0  0  0  0  0  0
   -7.6395    0.9938  -34.6634 C   0  0  0  0  0  0  0  0  0  0  0  0
   -8.0102   -0.3100  -34.4112 C   0  0  0  0  0  0  0  0  0  0  0  0
   -9.2765   -0.6694  -34.0121 C   0  0  0  0  0  0  0  0  0  0  0  0
  -12.4375    1.1211  -33.3984 N   0  0  0  0  0  0  0  0  0  0  0  0
  -13.7214    0.9070  -33.0122 C   0  0  0  0  0  0  0  0  0  0  0  0
  -15.1295    1.9949  -32.8236 S   0  0  0  0  0  0  0  0  0  0  0  0
  -18.6180    0.0000  -32.1099 C   0  0  0  0  0  0  0  0  0  0  0  0
  -19.9430    0.1757  -31.7935 C   0  0  0  0  0  0  0  0  0  0  0  0
  1  2  1  0
  2  3  1  0
  3  4  2  0
  4  5  1  0
  5  6  2  0
  6  7  1  0
  7  8  2  0
  8  9  1  0
  9 10  2  0
 10 11  1  0
 11 12  2  0
 12 13  1  0
 13 14  2  0
 14 15  1  0
 15 16  2  0
 16 17  1  0
 17 18  2  0
 12 19  1  0
 19 20  2  0
 20 21  1  0
  6 22  1  0
 22 23  2  0
 23  3  1  0
 21  7  1  0
 20  9  1  0
 18 13  1  0
M  END
$$$$
