
     RDKit          3D

 40 44  0  0  0  0  0  0  0  0999 V2000
  -14.4225   -5.9010  -30.8051 O   0  0  0  0  0  0  0  0  0  0  0  0
  -15.1240   -4.8553  -30.5535 C   0  0  0  0  0  0  0  0  0  0  0  0
  -14.6767   -3.6695  -31.1835 N   0  0  0  0  0  0  0  0  0  0  0  0
  -15.0070   -3.3790  -32.5646 C   0  0  2  0  0  0  0  0  0  0  0  0
  -13.8932   -2.8175  -33.3713 C   0  0  0  0  0  0  0  0  0  0  0  0
  -13.3910   -1.4932  -32.8956 C   0  0  0  0  0  0  0  0  0  0  0  0
  -14.3242   -0.3493  -32.9374 C   0  0  1  0  0  0  0  0  0  0  0  0
  -13.7244    0.9769  -33.1926 C   0  0  0  0  0  0  0  0  0  0  0  0
  -12.6116    1.0375  -34.0061 C   0  0  0  0  0  0  0  0  0  0  0  0
  -12.0098    2.2703  -34.2898 C   0  0  0  0  0  0  0  0  0  0  0  0
  -12.4982    3.4222  -33.7793 C   0  0  0  0  0  0  0  0  0  0  0  0
  -13.6104    3.3855  -32.9595 C   0  0  0  0  0  0  0  0  0  0  0  0
  -14.0944    4.5356  -32.4471 F   0  0  0  0  0  0  0  0  0  0  0  0
  -14.2019    2.1600  -32.6833 C   0  0  0  0  0  0  0  0  0  0  0  0
  -15.2819    2.1169  -31.8906 F   0  0  0  0  0  0  0  0  0  0  0  0
  -15.4422   -0.5277  -33.9279 C   0  0  0  0  0  0  0  0  0  0  0  0
  -16.4639   -1.3197  -33.2302 N   0  0  0  0  0  0  0  0  0  0  0  0
  -17.7376   -0.6717  -33.1331 C   0  0  0  0  0  0  0  0  0  0  0  0
  -18.3360   -0.4817  -34.5290 C   0  0  0  0  0  0  0  0  0  0  0  0
  -19.4970    0.2470  -34.4785 F   0  0  0  0  0  0  0  0  0  0  0  0
  -17.3801    0.1667  -35.2819 F   0  0  0  0  0  0  0  0  0  0  0  0
  -18.6769   -1.7151  -35.0689 F   0  0  0  0  0  0  0  0  0  0  0  0
  -16.2723   -2.5896  -32.6789 C   0  0  0  0  0  0  0  0  0  0  0  0
  -17.3271   -3.1290  -32.2205 O   0  0  0  0  0  0  0  0  0  0  0  0
  -16.2694   -4.9482  -29.6838 N   0  0  0  0  0  0  0  0  0  0  0  0
  -16.6391   -6.2956  -29.2863 C   0  0  0  0  0  0  0  0  0  0  0  0
  -17.2202   -6.3475  -27.9065 C   0  0  0  0  0  0  0  0  0  0  0  0
  -17.0424   -5.0324  -27.1833 C   0  0  0  0  0  0  0  0  0  0  0  0
  -17.5439   -5.1194  -25.8236 N   0  0  0  0  0  0  0  0  0  0  0  0
  -18.2261   -6.1177  -25.2588 C   0  0  0  0  0  0  0  0  0  0  0  0
  -18.5953   -7.2001  -25.7974 O   0  0  0  0  0  0  0  0  0  0  0  0
  -18.4734   -5.7818  -23.9710 N   0  0  0  0  0  0  0  0  0  0  0  0
  -17.9432   -4.5548  -23.6996 C   0  0  0  0  0  0  0  0  0  0  0  0
  -17.9262   -3.8023  -22.5751 N   0  0  0  0  0  0  0  0  0  0  0  0
  -17.3213   -2.6014  -22.5735 C   0  0  0  0  0  0  0  0  0  0  0  0
  -16.7337   -2.1822  -23.7468 C   0  0  0  0  0  0  0  0  0  0  0  0
  -16.7408   -2.9243  -24.8995 C   0  0  0  0  0  0  0  0  0  0  0  0
  -17.3623   -4.1517  -24.8821 C   0  0  0  0  0  0  0  0  0  0  0  0
  -17.6244   -3.8948  -27.9629 C   0  0  0  0  0  0  0  0  0  0  0  0
  -16.9400   -3.7516  -29.2701 C   0  0  0  0  0  0  0  0  0  0  0  0
  1  2  2  0
  2  3  1  0
  4  3  1  1
  4  5  1  0
  5  6  1  0
  6  7  1  0
  7  8  1  6
  8  9  2  0
  9 10  1  0
 10 11  2  0
 11 12  1  0
 12 13  1  0
 12 14  2  0
 14 15  1  0
  7 16  1  0
 16 17  1  0
 17 18  1  0
 18 19  1  0
 19 20  1  0
 19 21  1  0
 19 22  1  0
 17 23  1  0
 23 24  2  0
  2 25  1  0
 25 26  1  0
 26 27  1  0
 27 28  1  0
 28 29  1  0
 29 30  1  0
 30 31  2  0
 30 32  1  0
 32 33  1  0
 33 34  2  0
 34 35  1  0
 35 36  2  0
 36 37  1  0
 37 38  2  0
 28 39  1  0
 39 40  1  0
 23  4  1  0
 40 25  1  0
 14  8  1  0
 38 29  1  0
 38 33  1  0
M  END
$$$$
