
     RDKit          3D

 25 27  0  0  0  0  0  0  0  0999 V2000
  -24.1645   24.2904  -36.9683 O   0  0  0  0  0  0  0  0  0  0  0  0
  -23.4663   25.1882  -36.4905 C   0  0  0  0  0  0  0  0  0  0  0  0
  -22.0637   24.9018  -36.3945 N   0  0  0  0  0  0  0  0  0  0  0  0
  -21.4577   23.6622  -36.7318 C   0  0  0  0  0  0  0  0  0  0  0  0
  -20.0621   23.7628  -37.2746 C   0  0  0  0  0  0  0  0  0  0  0  0
  -19.5236   22.3568  -37.4410 C   0  0  0  0  0  0  0  0  0  0  0  0
  -20.5317   21.3485  -37.3784 N   0  0  0  0  0  0  0  0  0  0  0  0
  -21.2374   21.3041  -36.1294 C   0  0  0  0  0  0  0  0  0  0  0  0
  -21.4918   22.6645  -35.5675 C   0  0  0  0  0  0  0  0  0  0  0  0
  -24.0422   26.4401  -36.0612 C   0  0  0  0  0  0  0  0  0  0  0  0
  -23.2732   27.5510  -35.8170 N   0  0  0  0  0  0  0  0  0  0  0  0
  -24.0568   28.5364  -35.4432 N   0  0  0  0  0  0  0  0  0  0  0  0
  -25.3454   28.1009  -35.4331 C   0  0  0  0  0  0  0  0  0  0  0  0
  -25.3530   26.7815  -35.8203 C   0  0  0  0  0  0  0  0  0  0  0  0
  -26.4333   25.8498  -35.9782 N   0  0  0  0  0  0  0  0  0  0  0  0
  -27.7847   26.1995  -35.7711 C   0  0  0  0  0  0  0  0  0  0  0  0
  -27.9378   27.3816  -35.2785 O   0  0  0  0  0  0  0  0  0  0  0  0
  -28.9630   25.4022  -36.0467 C   0  0  0  0  0  0  0  0  0  0  0  0
  -29.3195   24.4688  -35.0593 C   0  0  0  0  0  0  0  0  0  0  0  0
  -28.3829   24.3309  -33.5765 Cl  0  0  0  0  0  0  0  0  0  0  0  0
  -30.3930   23.6236  -35.1760 C   0  0  0  0  0  0  0  0  0  0  0  0
  -31.1672   23.6850  -36.3150 C   0  0  0  0  0  0  0  0  0  0  0  0
  -30.8525   24.5911  -37.3169 C   0  0  0  0  0  0  0  0  0  0  0  0
  -29.7496   25.4352  -37.1600 C   0  0  0  0  0  0  0  0  0  0  0  0
  -29.4097   26.5136  -38.4919 Cl  0  0  0  0  0  0  0  0  0  0  0  0
  1  2  2  0
  2  3  1  0
  3  4  1  0
  4  5  1  0
  5  6  1  0
  6  7  1  0
  7  8  1  0
  8  9  1  0
  2 10  1  0
 10 11  2  0
 11 12  1  0
 12 13  1  0
 13 14  2  0
 14 15  1  0
 15 16  1  0
 16 17  2  0
 16 18  1  0
 18 19  2  0
 19 20  1  0
 19 21  1  0
 21 22  2  0
 22 23  1  0
 23 24  2  0
 24 25  1  0
  9  4  1  0
 14 10  1  0
 24 18  1  0
M  END
$$$$
