
     RDKit          3D

 15 16  0  0  0  0  0  0  0  0999 V2000
  -17.8924   42.9761  -21.4734 C   0  0  0  0  0  0  0  0  0  0  0  0
  -18.5053   41.7163  -21.9679 C   0  0  0  0  0  0  0  0  0  0  0  0
  -18.2101   40.5847  -21.3044 N   0  0  0  0  0  0  0  0  0  0  0  0
  -18.7426   39.4166  -21.7162 C   0  0  0  0  0  0  0  0  0  0  0  0
  -18.4829   38.2207  -21.0835 C   0  0  0  0  0  0  0  0  0  0  0  0
  -17.7387   38.1673  -20.0956 O   0  0  0  0  0  0  0  0  0  0  0  0
  -19.0589   37.1068  -21.5656 N   0  0  0  0  0  0  0  0  0  0  0  0
  -18.8428   35.8013  -20.9631 C   0  0  0  0  0  0  0  0  0  0  0  0
  -19.8812   37.1561  -22.6547 C   0  0  0  0  0  0  0  0  0  0  0  0
  -20.4070   36.0990  -23.0850 O   0  0  0  0  0  0  0  0  0  0  0  0
  -20.1527   38.3098  -23.2927 N   0  0  0  0  0  0  0  0  0  0  0  0
  -19.6258   39.4954  -22.8924 C   0  0  0  0  0  0  0  0  0  0  0  0
  -19.8921   40.6539  -23.5248 N   0  0  0  0  0  0  0  0  0  0  0  0
  -20.7710   40.6703  -24.6801 C   0  0  0  0  0  0  0  0  0  0  0  0
  -19.3146   41.7514  -23.0367 N   0  0  0  0  0  0  0  0  0  0  0  0
  1  2  1  0
  2  3  1  0
  3  4  2  0
  4  5  1  0
  5  6  2  0
  5  7  1  0
  7  8  1  0
  7  9  1  0
  9 10  2  0
  9 11  1  0
 11 12  2  0
 12 13  1  0
 13 14  1  0
 13 15  1  0
 15  2  2  0
 12  4  1  0
M  END
$$$$
