
     RDKit          3D

 22 22  0  0  0  0  0  0  0  0999 V2000
  -26.2839   29.4464  -27.0166 C   0  0  0  0  0  0  0  0  0  0  0  0
  -24.8270   29.8423  -26.9980 C   0  0  0  0  0  0  0  0  0  0  0  0
  -24.4127   30.2061  -28.3864 N   0  0  0  0  0  0  0  0  0  0  0  0
  -25.4768   30.1784  -29.3373 C   0  0  0  0  0  0  0  0  0  0  0  0
  -26.1676   28.8618  -29.4656 C   0  0  0  0  0  0  0  0  0  0  0  0
  -23.0848   30.4891  -28.6534 C   0  0  0  0  0  0  0  0  0  0  0  0
  -22.8883   31.6590  -29.2476 O   0  0  0  0  0  0  0  0  0  0  0  0
  -21.8532   29.7911  -28.4294 C   0  0  0  0  0  0  0  0  0  0  0  0
  -21.4411   28.8083  -29.4527 C   0  0  0  0  0  0  0  0  0  0  0  0
  -21.1048   28.0161  -30.2535 N   0  0  0  0  0  0  0  0  0  0  0  0
  -21.0216   29.8613  -27.4212 C   0  0  0  0  0  0  0  0  0  0  0  0
  -20.6595   31.1350  -26.7465 C   0  0  0  0  0  0  0  0  0  0  0  0
  -19.4730   31.2996  -26.0786 C   0  0  0  0  0  0  0  0  0  0  0  0
  -19.1225   32.4750  -25.4251 C   0  0  0  0  0  0  0  0  0  0  0  0
  -17.9206   32.6294  -24.7528 O   0  0  0  0  0  0  0  0  0  0  0  0
  -20.0163   33.5271  -25.4531 C   0  0  0  0  0  0  0  0  0  0  0  0
  -19.7226   34.7377  -24.8139 O   0  0  0  0  0  0  0  0  0  0  0  0
  -21.2339   33.4077  -26.1196 C   0  0  0  0  0  0  0  0  0  0  0  0
  -22.1263   34.5037  -26.1299 N   0  0  0  0  0  4  0  0  0  0  0  0
  -23.2959   34.3307  -26.4965 O   0  0  0  0  0  0  0  0  0  0  0  0
  -21.6931   35.7280  -25.7384 O   0  0  0  0  0  1  0  0  0  0  0  0
  -21.5299   32.2075  -26.7547 C   0  0  0  0  0  0  0  0  0  0  0  0
  1  2  1  0
  2  3  1  0
  3  4  1  0
  4  5  1  0
  3  6  1  0
  6  7  2  0
  6  8  1  0
  8  9  1  0
  9 10  3  0
  8 11  2  0
 11 12  1  0
 12 13  2  0
 13 14  1  0
 14 15  1  0
 14 16  2  0
 16 17  1  0
 16 18  1  0
 18 19  1  0
 19 20  2  0
 19 21  1  0
 18 22  2  0
 22 12  1  0
M  CHG  2  19   1  21  -1
M  END
$$$$
