
     RDKit          3D

 11 11  0  0  0  0  0  0  0  0999 V2000
  -18.7797   31.0124  -23.9008 N   0  0  0  0  0  0  0  0  0  0  0  0
  -18.8324   32.3974  -23.6255 C   0  0  0  0  0  0  0  0  0  0  0  0
  -19.1856   32.7775  -22.2241 C   0  0  0  0  0  0  0  0  0  0  0  0
  -19.2651   34.2050  -21.9618 C   0  0  0  0  0  0  0  0  0  0  0  0
  -20.4900   34.7530  -21.6452 C   0  0  0  0  0  0  0  0  0  0  0  0
  -20.6487   36.1031  -21.3821 C   0  0  0  0  0  0  0  0  0  0  0  0
  -19.5457   36.9405  -21.4360 C   0  0  0  0  0  0  0  0  0  0  0  0
  -19.7642   38.2887  -21.1624 O   0  0  0  0  0  0  0  0  0  0  0  0
  -18.3274   36.4169  -21.7471 C   0  0  0  0  0  0  0  0  0  0  0  0
  -17.2208   37.2595  -21.8007 O   0  0  0  0  0  0  0  0  0  0  0  0
  -18.1885   35.0637  -22.0072 C   0  0  0  0  0  0  0  0  0  0  0  0
  1  2  1  0
  2  3  1  0
  3  4  1  0
  4  5  2  0
  5  6  1  0
  6  7  2  0
  7  8  1  0
  7  9  1  0
  9 10  1  0
  9 11  2  0
 11  4  1  0
M  END
$$$$
