
     RDKit          3D

 25 27  0  0  0  0  0  0  0  0999 V2000
  -27.0075   28.5479  -35.0371 C   0  0  0  0  0  0  0  0  0  0  0  0
  -26.7278   29.5922  -34.1393 O   0  0  0  0  0  0  0  0  0  0  0  0
  -26.6338   29.4258  -32.7677 C   0  0  0  0  0  0  0  0  0  0  0  0
  -26.8926   28.2537  -32.0935 C   0  0  0  0  0  0  0  0  0  0  0  0
  -26.7643   28.2068  -30.7251 C   0  0  0  0  0  0  0  0  0  0  0  0
  -26.3849   29.2823  -29.9599 C   0  0  0  0  0  0  0  0  0  0  0  0
  -26.2452   29.1469  -28.4999 C   0  0  0  0  0  0  0  0  0  0  0  0
  -24.9556   28.5719  -28.0884 C   0  0  0  0  0  0  0  0  0  0  0  0
  -24.7439   27.2372  -28.0465 N   0  0  0  0  0  0  0  0  0  0  0  0
  -23.5702   26.6799  -27.7073 C   0  0  0  0  0  0  0  0  0  0  0  0
  -22.5124   27.4928  -27.3802 C   0  0  0  0  0  0  0  0  0  0  0  0
  -22.6578   28.8595  -27.4008 C   0  0  0  0  0  0  0  0  0  0  0  0
  -21.6062   29.6993  -27.0668 C   0  0  0  0  0  0  0  0  0  0  0  0
  -21.6959   31.0646  -27.0602 C   0  0  0  0  0  0  0  0  0  0  0  0
  -20.6680   31.9209  -26.7364 O   0  0  0  0  0  0  0  0  0  0  0  0
  -19.5862   31.7221  -25.8976 C   0  0  0  0  0  0  0  0  0  0  0  0
  -22.9388   31.6046  -27.4181 C   0  0  0  0  0  0  0  0  0  0  0  0
  -23.0304   32.9813  -27.4103 O   0  0  0  0  0  0  0  0  0  0  0  0
  -23.1762   33.8241  -28.5042 C   0  0  0  0  0  0  0  0  0  0  0  0
  -23.9822   30.7689  -27.7514 C   0  0  0  0  0  0  0  0  0  0  0  0
  -23.9055   29.3946  -27.7624 C   0  0  0  0  0  0  0  0  0  0  0  0
  -26.1245   30.4652  -30.6437 C   0  0  0  0  0  0  0  0  0  0  0  0
  -26.2436   30.5421  -32.0176 C   0  0  0  0  0  0  0  0  0  0  0  0
  -25.9805   31.7171  -32.7044 O   0  0  0  0  0  0  0  0  0  0  0  0
  -26.4640   32.9312  -32.1749 C   0  0  0  0  0  0  0  0  0  0  0  0
  1  2  1  0
  2  3  1  0
  3  4  2  0
  4  5  1  0
  5  6  2  0
  6  7  1  0
  7  8  1  0
  8  9  2  0
  9 10  1  0
 10 11  2  0
 11 12  1  0
 12 13  2  0
 13 14  1  0
 14 15  1  0
 15 16  1  0
 14 17  2  0
 17 18  1  0
 18 19  1  0
 17 20  1  0
 20 21  2  0
  6 22  1  0
 22 23  2  0
 23 24  1  0
 24 25  1  0
 23  3  1  0
 21  8  1  0
 21 12  1  0
M  END
$$$$
