
     RDKit          3D

 24 24  0  0  0  0  0  0  0  0999 V2000
  -18.3992   41.1239  -21.6041 C   0  0  0  0  0  0  0  0  0  0  0  0
  -18.3965   39.8376  -20.9261 C   0  0  0  0  0  0  0  0  0  0  0  0
  -17.4952   39.5886  -19.8660 C   0  0  0  0  0  0  0  0  0  0  0  0
  -17.4272   38.4369  -19.2022 N   0  0  0  0  0  0  0  0  0  0  0  0
  -18.2289   37.4393  -19.5172 C   0  0  0  0  0  0  0  0  0  0  0  0
  -19.1422   37.5839  -20.5364 C   0  0  0  0  0  0  0  0  0  0  0  0
  -19.9661   36.5286  -20.8510 C   0  0  0  0  0  0  0  0  0  0  0  0
  -20.8724   36.6267  -21.8445 C   0  0  0  0  0  0  0  0  0  0  0  0
  -20.9526   37.7960  -22.5293 C   0  0  0  0  0  0  0  0  0  0  0  0
  -20.1494   38.9392  -22.2833 C   0  0  0  0  0  0  0  0  0  0  0  0
  -20.3316   40.3962  -23.1369 S   0  0  0  0  0  6  0  0  0  0  0  0
  -21.2094   41.4652  -22.6121 O   0  0  0  0  0  0  0  0  0  0  0  0
  -19.2114   40.8235  -24.0557 O   0  0  0  0  0  0  0  0  0  0  0  0
  -21.4065   39.9098  -24.4726 N   0  0  0  0  0  0  0  0  0  0  0  0
  -20.8293   38.9409  -25.3210 C   0  0  0  0  0  0  0  0  0  0  0  0
  -20.2248   39.5841  -26.5635 C   0  0  0  0  0  0  0  0  0  0  0  0
  -21.2045   40.2934  -27.4274 C   0  0  0  0  0  0  0  0  0  0  0  0
  -21.3441   41.7089  -27.1448 N   0  0  0  0  0  0  0  0  0  0  0  0
  -21.4332   42.0236  -25.7494 C   0  0  0  0  0  0  0  0  0  0  0  0
  -22.1721   40.9349  -25.0265 C   0  0  2  0  0  0  0  0  0  0  0  0
  -23.1729   41.5186  -24.0189 C   0  0  0  0  0  0  0  0  0  0  0  0
  -19.2333   38.8072  -21.2609 C   0  0  0  0  0  0  0  0  0  0  0  0
  -20.0356   39.5519  -22.9523 Cl  0  0  0  0  0  0  0  0  0  0  0  0
  -20.0329   39.5491  -22.9460 Cl  0  0  0  0  0  0  0  0  0  0  0  0
  1  2  1  0
  2  3  2  0
  3  4  1  0
  4  5  2  0
  5  6  1  0
  6  7  2  0
  7  8  1  0
  8  9  2  0
  9 10  1  0
 10 11  1  0
 11 12  2  0
 11 13  2  0
 11 14  1  0
 14 15  1  0
 15 16  1  0
 16 17  1  0
 17 18  1  0
 18 19  1  0
 19 20  1  0
 20 21  1  1
 10 22  2  0
 22  2  1  0
 22  6  1  0
 20 14  1  0
M  END
$$$$
