
     RDKit          3D

 32 34  0  0  0  0  0  0  0  0999 V2000
  -29.4063   11.9411  -20.1686 Cl  0  0  0  0  0  0  0  0  0  0  0  0
  -29.4055   11.9416  -20.1690 Cl  0  0  0  0  0  0  0  0  0  0  0  0
  -25.1698   16.3166  -22.3865 N   0  0  0  0  0  0  0  0  0  0  0  0
  -26.5194   16.4706  -21.9640 C   0  0  0  0  0  0  0  0  0  0  0  0
  -27.0322   17.7412  -21.9548 N   0  0  0  0  0  0  0  0  0  0  0  0
  -28.2798   17.9341  -21.5206 C   0  0  0  0  0  0  0  0  0  0  0  0
  -29.0475   16.9232  -21.0924 N   0  0  0  0  0  0  0  0  0  0  0  0
  -28.5797   15.6682  -21.0878 C   0  0  0  0  0  0  0  0  0  0  0  0
  -29.3004   14.6406  -20.6567 N   0  0  0  0  0  0  0  0  0  0  0  0
  -28.8717   13.3665  -20.6178 C   0  0  0  0  0  0  0  0  0  0  0  0
  -29.7499   12.3131  -20.1218 C   0  0  0  0  0  0  0  0  0  0  0  0
  -31.0300   12.6636  -19.6952 C   0  0  0  0  0  0  0  0  0  0  0  0
  -31.8622   11.6941  -19.2296 C   0  0  0  0  0  0  0  0  0  0  0  0
  -31.5078   10.3560  -19.1527 C   0  0  0  0  0  0  0  0  0  0  0  0
  -32.4026    9.3656  -18.6603 N   0  0  0  0  0  0  0  0  0  0  0  0
  -33.6987    9.7707  -18.2363 C   0  0  0  0  0  0  0  0  0  0  0  0
  -34.5831    8.7053  -17.7267 C   0  0  0  0  0  0  0  0  0  0  0  0
  -34.0553    7.4521  -17.6489 O   0  0  0  0  0  0  0  0  0  0  0  0
  -32.7111    7.3855  -17.3779 C   0  0  0  0  0  0  0  0  0  0  0  0
  -31.9995    7.9903  -18.5958 C   0  0  0  0  0  0  0  0  0  0  0  0
  -30.2687   10.0509  -19.5711 N   0  0  0  0  0  0  0  0  0  0  0  0
  -29.4008   10.9914  -20.0455 C   0  0  0  0  0  0  0  0  0  0  0  0
  -27.6117   13.0884  -21.0482 C   0  0  0  0  0  0  0  0  0  0  0  0
  -26.7791   14.1304  -21.5249 C   0  0  0  0  0  0  0  0  0  0  0  0
  -25.4761   13.7481  -22.0484 C   0  0  0  0  0  0  0  0  0  0  0  0
  -25.2387   13.8318  -23.3970 C   0  0  0  0  0  0  0  0  0  0  0  0
  -24.0258   13.4485  -23.9598 C   0  0  0  0  0  0  0  0  0  0  0  0
  -23.0366   12.9717  -23.1364 C   0  0  0  0  0  0  0  0  0  0  0  0
  -23.2462   12.8776  -21.7877 C   0  0  0  0  0  0  0  0  0  0  0  0
  -21.8690   12.2122  -20.6299 Br  0  0  0  0  0  0  0  0  0  0  0  0
  -24.4442   13.2588  -21.2526 C   0  0  0  0  0  0  0  0  0  0  0  0
  -27.2703   15.4164  -21.5384 C   0  0  0  0  0  0  0  0  0  0  0  0
  3  4  1  0
  4  5  2  0
  5  6  1  0
  6  7  2  0
  7  8  1  0
  8  9  2  0
  9 10  1  0
 10 11  1  0
 11 12  2  0
 12 13  1  0
 13 14  2  0
 14 15  1  0
 15 16  1  0
 16 17  1  0
 17 18  1  0
 18 19  1  0
 19 20  1  0
 14 21  1  0
 21 22  2  0
 10 23  2  0
 23 24  1  0
 24 25  1  0
 25 26  2  0
 26 27  1  0
 27 28  2  0
 28 29  1  0
 29 30  1  0
 29 31  2  0
 24 32  2  0
 32  4  1  0
 32  8  1  0
 22 11  1  0
 31 25  1  0
 20 15  1  0
M  END
$$$$
