
     RDKit          3D

 32 34  0  0  0  0  0  0  0  0999 V2000
  -17.9758   15.2407  -37.0578 C   0  0  0  0  0  0  0  0  0  0  0  0
  -16.6319   15.5304  -37.6021 C   0  0  0  0  0  0  0  0  0  0  0  0
  -15.5144   14.8801  -37.2661 N   0  0  0  0  0  0  0  0  0  0  0  0
  -14.5583   15.3952  -37.9266 O   0  0  0  0  0  0  0  0  0  0  0  0
  -14.9295   16.3784  -38.7172 C   0  0  0  0  0  0  0  0  0  0  0  0
  -14.0029   17.1192  -39.5720 C   0  0  0  0  0  0  0  0  0  0  0  0
  -12.6630   17.2259  -39.2267 C   0  0  0  0  0  0  0  0  0  0  0  0
  -11.7440   17.9045  -40.0016 C   0  0  0  0  0  0  0  0  0  0  0  0
  -12.1114   18.5221  -41.1771 C   0  0  0  0  0  0  0  0  0  0  0  0
  -11.1240   19.2593  -42.0231 C   0  0  0  0  0  0  0  0  0  0  0  0
  -10.7932   18.4020  -43.5709 S   0  0  0  0  0  0  0  0  0  0  0  0
   -9.6515   19.4525  -44.5391 C   0  0  0  0  0  0  0  0  0  0  0  0
   -9.9490   19.1788  -45.9947 C   0  0  0  0  0  0  0  0  0  0  0  0
   -9.8060   17.7521  -46.3250 C   0  0  0  0  0  0  0  0  0  0  0  0
   -9.8026   17.3685  -47.5202 O   0  0  0  0  0  0  0  0  0  0  0  0
   -9.6726   16.8049  -45.3326 O   0  0  0  0  0  0  0  0  0  0  0  0
  -13.4366   18.4226  -41.5292 C   0  0  0  0  0  0  0  0  0  0  0  0
  -14.3671   17.7356  -40.7451 C   0  0  0  0  0  0  0  0  0  0  0  0
  -16.2838   16.5068  -38.5399 C   0  0  0  0  0  0  0  0  0  0  0  0
  -17.1437   17.4442  -39.1585 N   0  0  0  0  0  0  0  0  0  0  0  0
  -17.3818   18.7374  -38.6307 C   0  0  0  0  0  0  0  0  0  0  0  0
  -16.5474   19.1642  -37.7804 O   0  0  0  0  0  0  0  0  0  0  0  0
  -18.4604   19.5290  -38.9985 O   0  0  0  0  0  0  0  0  0  0  0  0
  -18.2396   20.7260  -39.7217 C   0  0  0  0  0  0  0  0  0  0  0  0
  -18.5100   21.9514  -38.8949 C   0  0  0  0  0  0  0  0  0  0  0  0
  -19.0891   20.7248  -40.9539 C   0  0  0  0  0  0  0  0  0  0  0  0
  -20.2526   19.9772  -40.9919 C   0  0  0  0  0  0  0  0  0  0  0  0
  -21.0394   19.9740  -42.1298 C   0  0  0  0  0  0  0  0  0  0  0  0
  -20.6739   20.7094  -43.2260 C   0  0  0  0  0  0  0  0  0  0  0  0
  -19.5236   21.4527  -43.1976 C   0  0  0  0  0  0  0  0  0  0  0  0
  -18.7372   21.4611  -42.0721 C   0  0  0  0  0  0  0  0  0  0  0  0
  -17.2678   22.4006  -42.0139 Cl  0  0  0  0  0  0  0  0  0  0  0  0
  1  2  1  0
  2  3  2  0
  3  4  1  0
  4  5  1  0
  5  6  1  0
  6  7  2  0
  7  8  1  0
  8  9  2  0
  9 10  1  0
 10 11  1  0
 11 12  1  0
 12 13  1  0
 13 14  1  0
 14 15  2  0
 14 16  1  0
  9 17  1  0
 17 18  2  0
  5 19  2  0
 19 20  1  0
 20 21  1  0
 21 22  2  0
 21 23  1  0
 23 24  1  0
 24 25  1  0
 24 26  1  0
 26 27  2  0
 27 28  1  0
 28 29  2  0
 29 30  1  0
 30 31  2  0
 31 32  1  0
 19  2  1  0
 31 26  1  0
 18  6  1  0
M  END
$$$$
