
     RDKit          3D

 28 30  0  0  0  0  0  0  0  0999 V2000
  -40.3804    4.4851  -33.2455 C   0  0  0  0  0  0  0  0  0  0  0  0
  -39.7643    5.3842  -32.1971 C   0  0  0  0  0  0  0  0  0  0  0  0
  -40.0638    6.8177  -32.5771 C   0  0  2  0  0  0  0  0  0  0  0  0
  -40.3130    7.6558  -31.3432 C   0  0  0  0  0  0  0  0  0  0  0  0
  -41.1697    6.8770  -33.5369 C   0  0  0  0  0  0  0  0  0  0  0  0
  -41.0407    6.3895  -34.7096 O   0  0  0  0  0  0  0  0  0  0  0  0
  -42.4046    7.4455  -33.2660 O   0  0  0  0  0  0  0  0  0  0  0  0
  -42.6272    8.8050  -33.0527 C   0  0  1  0  0  0  0  0  0  0  0  0
  -41.3204    9.5650  -33.1973 C   0  0  0  0  0  0  0  0  0  0  0  0
  -41.4851   10.9594  -32.6228 C   0  0  0  0  0  0  0  0  0  0  0  0
  -42.7717   11.5575  -33.0753 C   0  0  0  0  0  0  0  0  0  0  0  0
  -43.7772   10.8870  -33.5345 C   0  0  0  0  0  0  0  0  0  0  0  0
  -45.0220   11.5448  -33.9674 C   0  0  0  0  0  0  0  0  0  0  0  0
  -45.8401   10.8906  -34.8061 C   0  0  0  0  0  0  0  0  0  0  0  0
  -45.5492    9.5256  -35.3225 C   0  0  2  0  0  0  0  0  0  0  0  0
  -46.4420    8.5819  -34.5472 C   0  0  0  0  0  0  0  0  0  0  0  0
  -44.0633    9.1791  -35.1329 C   0  0  2  0  0  0  0  0  0  0  0  0
  -43.7719    7.8504  -35.6884 C   0  0  0  0  0  0  0  0  0  0  0  0
  -44.6214    7.4765  -36.8469 C   0  0  0  0  0  0  0  0  0  0  0  0
  -44.8342    6.0322  -37.0994 C   0  0  2  0  0  0  0  0  0  0  0  0
  -43.5831    5.2023  -36.9364 C   0  0  0  0  0  0  0  0  0  0  0  0
  -43.8643    3.7779  -37.3622 C   0  0  1  0  0  0  0  0  0  0  0  0
  -45.0062    3.2766  -36.7083 O   0  0  0  0  0  0  0  0  0  0  0  0
  -44.1950    3.8143  -38.8403 C   0  0  0  0  0  0  0  0  0  0  0  0
  -45.4871    4.5583  -38.9576 C   0  0  0  0  0  0  0  0  0  0  0  0
  -46.4573    4.1297  -39.6257 O   0  0  0  0  0  0  0  0  0  0  0  0
  -45.5466    5.7722  -38.2699 O   0  0  0  0  0  0  0  0  0  0  0  0
  -43.7988    9.4091  -33.6870 C   0  0  1  0  0  0  0  0  0  0  0  0
  1  2  1  0
  2  3  1  0
  3  4  1  1
  3  5  1  0
  5  6  2  0
  5  7  1  0
  8  7  1  6
  8  9  1  0
  9 10  1  0
 10 11  1  0
 11 12  2  0
 12 13  1  0
 13 14  2  0
 14 15  1  0
 15 16  1  1
 15 17  1  0
 17 18  1  1
 18 19  1  0
 20 19  1  6
 20 21  1  0
 21 22  1  0
 22 23  1  1
 22 24  1  0
 24 25  1  0
 25 26  2  0
 25 27  1  0
 17 28  1  0
 28  8  1  0
 28 12  1  6
 27 20  1  0
M  END
$$$$
