
     RDKit          3D

 30 33  0  0  0  0  0  0  0  0999 V2000
  -14.5908   13.4748  -30.4996 C   0  0  0  0  0  0  0  0  0  0  0  0
  -14.7909   14.4303  -31.6568 C   0  0  0  0  0  0  0  0  0  0  0  0
  -16.0393   14.8506  -32.0173 C   0  0  0  0  0  0  0  0  0  0  0  0
  -16.2066   15.7153  -33.0665 C   0  0  0  0  0  0  0  0  0  0  0  0
  -17.5549   16.1739  -33.4671 C   0  0  0  0  0  0  0  0  0  0  0  0
  -18.5523   15.2837  -33.5341 N   0  0  0  0  0  0  0  0  0  0  0  0
  -19.8168   15.6455  -33.8941 C   0  0  0  0  0  0  0  0  0  0  0  0
  -20.1125   16.9520  -34.2039 C   0  0  0  0  0  0  0  0  0  0  0  0
  -21.4856   17.3121  -34.5888 C   0  0  0  0  0  0  0  0  0  0  0  0
  -22.1791   18.0928  -33.5201 C   0  0  0  0  0  0  0  0  0  0  0  0
  -22.5591   17.4528  -32.5226 O   0  0  0  0  0  0  0  0  0  0  0  0
  -22.4100   19.4640  -33.5930 N   0  0  0  0  0  0  0  0  0  0  0  0
  -23.1502   20.2888  -32.7300 C   0  0  0  0  0  0  0  0  0  0  0  0
  -23.5245   19.9102  -31.4821 C   0  0  0  0  0  0  0  0  0  0  0  0
  -24.2724   20.7692  -30.6364 C   0  0  0  0  0  0  0  0  0  0  0  0
  -24.6385   22.0141  -31.0628 C   0  0  0  0  0  0  0  0  0  0  0  0
  -25.4014   22.9123  -30.2225 C   0  0  0  0  0  0  0  0  0  0  0  0
  -25.5951   24.2381  -30.5025 C   0  0  0  0  0  0  0  0  0  0  0  0
  -26.3259   25.0462  -29.6738 N   0  0  0  0  0  0  0  0  0  0  0  0
  -26.8760   24.5500  -28.5538 C   0  0  0  0  0  0  0  0  0  0  0  0
  -26.6920   23.2267  -28.2589 C   0  0  0  0  0  0  0  0  0  0  0  0
  -25.9736   22.4371  -29.0757 N   0  0  0  0  0  0  0  0  0  0  0  0
  -24.2366   22.3634  -32.3442 C   0  0  0  0  0  0  0  0  0  0  0  0
  -23.5327   21.5339  -33.1189 N   0  0  0  0  0  0  0  0  0  0  0  0
  -19.0880   17.8657  -34.1348 C   0  0  0  0  0  0  0  0  0  0  0  0
  -17.7901   17.4935  -33.7650 C   0  0  0  0  0  0  0  0  0  0  0  0
  -16.7228   18.5324  -33.7045 C   0  0  0  0  0  0  0  0  0  0  0  0
  -15.0923   16.1515  -33.7491 C   0  0  0  0  0  0  0  0  0  0  0  0
  -13.8309   15.7302  -33.3891 C   0  0  0  0  0  0  0  0  0  0  0  0
  -13.7324   14.8816  -32.3511 N   0  0  0  0  0  0  0  0  0  0  0  0
  1  2  1  0
  2  3  2  0
  3  4  1  0
  4  5  1  0
  5  6  2  0
  6  7  1  0
  7  8  2  0
  8  9  1  0
  9 10  1  0
 10 11  2  0
 10 12  1  0
 12 13  1  0
 13 14  2  0
 14 15  1  0
 15 16  2  0
 16 17  1  0
 17 18  2  0
 18 19  1  0
 19 20  2  0
 20 21  1  0
 21 22  2  0
 16 23  1  0
 23 24  2  0
  8 25  1  0
 25 26  2  0
 26 27  1  0
  4 28  2  0
 28 29  1  0
 29 30  2  0
 30  2  1  0
 26  5  1  0
 24 13  1  0
 22 17  1  0
M  END
$$$$
