
     RDKit          3D

 38 42  0  0  0  0  0  0  0  0999 V2000
    2.8271   16.1710  -16.0149 N   0  0  0  0  0  0  0  0  0  0  0  0
    2.5154   16.6975  -16.9648 C   0  0  0  0  0  0  0  0  0  0  0  0
    2.0924   17.3633  -18.2013 C   0  0  0  0  0  0  0  0  0  0  0  0
    0.8294   17.0475  -18.7174 C   0  0  0  0  0  0  0  0  0  0  0  0
    0.4498   17.6180  -19.8668 N   0  0  0  0  0  0  0  0  0  0  0  0
    1.2200   18.4803  -20.5526 C   0  0  0  0  0  0  0  0  0  0  0  0
    0.8078   19.0353  -21.7427 C   0  0  0  0  0  0  0  0  0  0  0  0
   -0.7760   18.6121  -22.3522 Cl  0  0  0  0  0  0  0  0  0  0  0  0
    1.6263   19.9188  -22.4597 C   0  0  0  0  0  0  0  0  0  0  0  0
    2.8666   20.2692  -22.0141 C   0  0  0  0  0  0  0  0  0  0  0  0
    3.7657   21.0969  -22.7054 N   0  0  0  0  0  0  0  0  0  0  0  0
    4.0408   21.0040  -24.1101 C   0  0  0  0  0  0  0  0  0  0  0  0
    4.3278   19.5773  -24.4322 C   0  0  0  0  0  0  0  0  0  0  0  0
    5.5181   18.9167  -24.4915 C   0  0  0  0  0  0  0  0  0  0  0  0
    5.3400   17.6575  -24.8927 N   0  0  0  0  0  0  0  0  0  0  0  0
    6.2979   16.5680  -25.0472 C   0  0  0  0  0  0  0  0  0  0  0  0
    7.0245   16.7088  -26.3533 C   0  0  0  0  0  0  0  0  0  0  0  0
    6.2394   17.3036  -27.3515 N   0  0  0  0  0  0  0  0  0  0  0  0
    5.1064   16.6201  -27.8505 C   0  0  0  0  0  0  0  0  0  0  0  0
    5.4299   15.6775  -28.9953 C   0  0  0  0  0  0  0  0  0  0  0  0
    6.1612   16.3099  -30.1303 C   0  0  0  0  0  0  0  0  0  0  0  0
    7.6378   16.2911  -29.8611 C   0  0  0  0  0  0  0  0  0  0  0  0
    8.1077   17.3754  -28.9273 C   0  0  0  0  0  0  0  0  0  0  0  0
    6.9576   18.1207  -28.2923 C   0  0  0  0  0  0  0  0  0  0  0  0
    4.0256   17.5171  -25.0898 N   0  0  0  0  0  0  0  0  0  0  0  0
    3.4060   18.6459  -24.8209 N   0  0  0  0  0  0  0  0  0  0  0  0
    3.2610   19.6860  -20.7902 C   0  0  0  0  0  0  0  0  0  0  0  0
    2.4788   18.8248  -20.0791 C   0  0  0  0  0  0  0  0  0  0  0  0
    2.8667   18.2358  -18.8933 C   0  0  0  0  0  0  0  0  0  0  0  0
    4.1431   18.6262  -18.3815 N   0  0  0  0  0  0  0  0  0  0  0  0
    4.1183   19.8173  -17.5855 C   0  0  0  0  0  0  0  0  0  0  0  0
    5.2466   20.2959  -16.9708 C   0  0  0  0  0  0  0  0  0  0  0  0
    5.2256   21.4362  -16.1874 C   0  0  0  0  0  0  0  0  0  0  0  0
    4.0303   22.0965  -16.0304 C   0  0  0  0  0  0  0  0  0  0  0  0
    4.0055   23.2308  -15.2503 F   0  0  0  0  0  0  0  0  0  0  0  0
    2.8831   21.6527  -16.6251 C   0  0  0  0  0  0  0  0  0  0  0  0
    1.4108   22.5625  -16.3777 Cl  0  0  0  0  0  0  0  0  0  0  0  0
    2.9479   20.5019  -17.4059 C   0  0  0  0  0  0  0  0  0  0  0  0
  1  2  3  0
  2  3  1  0
  3  4  2  0
  4  5  1  0
  5  6  2  0
  6  7  1  0
  7  8  1  0
  7  9  2  0
  9 10  1  0
 10 11  1  0
 11 12  1  0
 12 13  1  0
 13 14  2  0
 14 15  1  0
 15 16  1  0
 16 17  1  0
 17 18  1  0
 18 19  1  0
 19 20  1  0
 20 21  1  0
 21 22  1  0
 22 23  1  0
 23 24  1  0
 15 25  1  0
 25 26  2  0
 10 27  2  0
 27 28  1  0
 28 29  2  0
 29 30  1  0
 30 31  1  0
 31 32  2  0
 32 33  1  0
 33 34  2  0
 34 35  1  0
 34 36  1  0
 36 37  1  0
 36 38  2  0
 29  3  1  0
 38 31  1  0
 28  6  1  0
 26 13  1  0
 24 18  1  0
M  END
$$$$
