
     RDKit          3D

 28 29  0  0  0  0  0  0  0  0999 V2000
  -18.6648   32.7009  -21.6242 C   0  0  0  0  0  0  0  0  0  0  0  0
  -19.0666   34.1318  -21.3508 C   0  0  0  0  0  0  0  0  0  0  0  0
  -18.2230   35.0469  -22.2266 C   0  0  0  0  0  0  0  0  0  0  0  0
  -18.7684   36.3956  -22.1724 N   0  0  0  0  0  0  0  0  0  0  0  0
  -18.4515   37.2498  -21.0926 C   0  0  0  0  0  0  0  0  0  0  0  0
  -17.7580   36.7612  -20.1391 O   0  0  0  0  0  0  0  0  0  0  0  0
  -18.8769   38.6502  -21.0192 C   0  0  1  0  0  0  0  0  0  0  0  0
  -19.9768   38.7825  -20.0356 O   0  0  0  0  0  0  0  0  0  0  0  0
  -18.6685   39.3733  -19.7887 C   0  0  2  0  0  0  0  0  0  0  0  0
  -18.7740   40.8544  -19.6832 C   0  0  0  0  0  0  0  0  0  0  0  0
  -19.7208   41.4191  -19.0778 O   0  0  0  0  0  0  0  0  0  0  0  0
  -17.7817   41.6721  -20.2800 N   0  0  0  0  0  0  0  0  0  0  0  0
  -17.8163   43.1561  -20.1758 C   0  0  2  0  0  0  0  0  0  0  0  0
  -18.9795   43.6322  -20.9322 C   0  0  0  0  0  0  0  0  0  0  0  0
  -19.8843   44.2656  -20.2864 O   0  0  0  0  0  0  0  0  0  0  0  0
  -19.2252   43.4761  -22.3179 N   0  0  0  0  0  0  0  0  0  0  0  0
  -18.5593   42.6717  -23.3233 C   0  0  0  0  0  0  0  0  0  0  0  0
  -18.5154   43.5724  -24.5480 C   0  0  0  0  0  0  0  0  0  0  0  0
  -19.5101   44.6635  -24.2707 C   0  0  0  0  0  0  0  0  0  0  0  0
  -20.2920   44.1419  -23.0895 C   0  0  1  0  0  0  0  0  0  0  0  0
  -21.3092   43.2087  -23.5773 C   0  0  0  0  0  0  0  0  0  0  0  0
  -21.0316   41.9678  -23.5030 O   0  0  0  0  0  0  0  0  0  0  0  0
  -22.5335   43.5177  -24.1083 O   0  0  0  0  0  0  0  0  0  0  0  0
  -23.6965   42.7190  -23.9593 C   0  0  0  0  0  0  0  0  0  0  0  0
  -16.4945   43.5879  -20.8072 C   0  0  1  0  0  0  0  0  0  0  0  0
  -16.3532   45.0691  -20.9991 C   0  0  0  0  0  0  0  0  0  0  0  0
  -15.3195   43.1365  -19.9697 C   0  0  0  0  0  0  0  0  0  0  0  0
  -15.1169   44.0304  -18.7830 C   0  0  0  0  0  0  0  0  0  0  0  0
  1  2  1  0
  2  3  1  0
  3  4  1  0
  4  5  1  0
  5  6  2  0
  7  5  1  1
  7  8  1  0
  8  9  1  0
  9 10  1  6
 10 11  2  0
 10 12  1  0
 13 12  1  6
 13 14  1  0
 14 15  2  0
 14 16  1  0
 16 17  1  0
 17 18  1  0
 18 19  1  0
 19 20  1  0
 20 21  1  6
 21 22  2  0
 21 23  1  0
 23 24  1  0
 13 25  1  0
 25 26  1  1
 25 27  1  0
 27 28  1  0
  9  7  1  0
 20 16  1  0
M  END
$$$$
