
     RDKit          3D

 28 30  0  0  0  0  0  0  0  0999 V2000
  -32.5495   13.9672  -17.3001 C   0  0  0  0  0  0  0  0  0  0  0  0
  -32.2194   13.7518  -18.7083 C   0  0  0  0  0  0  0  0  0  0  0  0
  -31.9345   12.5519  -19.2982 C   0  0  0  0  0  0  0  0  0  0  0  0
  -31.6896   12.8042  -20.6310 C   0  0  0  0  0  0  0  0  0  0  0  0
  -31.3732   11.8046  -21.5719 N   0  0  0  0  0  0  0  0  0  0  0  0
  -30.6849   12.0415  -23.1064 S   0  0  0  0  0  6  0  0  0  0  0  0
  -30.6028   10.6870  -23.7952 O   0  0  0  0  0  0  0  0  0  0  0  0
  -31.5867   12.8630  -24.0071 O   0  0  0  0  0  0  0  0  0  0  0  0
  -29.1029   12.7699  -22.9994 C   0  0  0  0  0  0  0  0  0  0  0  0
  -28.9921   14.1666  -23.0963 C   0  0  0  0  0  0  0  0  0  0  0  0
  -27.7893   14.8075  -22.9965 C   0  0  0  0  0  0  0  0  0  0  0  0
  -26.5873   14.1156  -22.7932 C   0  0  0  0  0  0  0  0  0  0  0  0
  -25.3763   14.8419  -22.6805 N   0  0  0  0  0  0  0  0  0  0  0  0
  -24.0767   14.2511  -22.6085 C   0  0  0  0  0  0  0  0  0  0  0  0
  -24.0779   13.0090  -22.4838 O   0  0  0  0  0  0  0  0  0  0  0  0
  -22.8677   15.0929  -22.6769 C   0  0  0  0  0  0  0  0  0  0  0  0
  -22.0837   15.1563  -21.4348 C   0  0  0  0  0  0  0  0  0  0  0  0
  -22.6004   15.4661  -20.2089 C   0  0  0  0  0  0  0  0  0  0  0  0
  -21.7783   15.5190  -19.0788 C   0  0  0  0  0  0  0  0  0  0  0  0
  -20.4063   15.2501  -19.1940 C   0  0  0  0  0  0  0  0  0  0  0  0
  -19.3963   15.3270  -17.7754 Cl  0  0  0  0  0  0  0  0  0  0  0  0
  -19.8724   14.9353  -20.4187 C   0  0  0  0  0  0  0  0  0  0  0  0
  -18.1730   14.6016  -20.5357 Cl  0  0  0  0  0  0  0  0  0  0  0  0
  -20.7132   14.8947  -21.5042 C   0  0  0  0  0  0  0  0  0  0  0  0
  -26.6940   12.7503  -22.6980 C   0  0  0  0  0  0  0  0  0  0  0  0
  -27.9254   12.0992  -22.7993 C   0  0  0  0  0  0  0  0  0  0  0  0
  -31.8305   14.1115  -20.7876 N   0  0  0  0  0  0  0  0  0  0  0  0
  -32.1424   14.6812  -19.6536 O   0  0  0  0  0  0  0  0  0  0  0  0
  1  2  1  0
  2  3  2  0
  3  4  1  0
  4  5  1  0
  5  6  1  0
  6  7  2  0
  6  8  2  0
  6  9  1  0
  9 10  2  0
 10 11  1  0
 11 12  2  0
 12 13  1  0
 13 14  1  0
 14 15  2  0
 14 16  1  0
 16 17  1  0
 17 18  2  0
 18 19  1  0
 19 20  2  0
 20 21  1  0
 20 22  1  0
 22 23  1  0
 22 24  2  0
 12 25  1  0
 25 26  2  0
  4 27  2  0
 27 28  1  0
 28  2  1  0
 26  9  1  0
 24 17  1  0
M  END
$$$$
