
     RDKit          3D

 14 15  0  0  0  0  0  0  0  0999 V2000
  -21.3435   37.8459  -23.5294 O   0  0  0  0  0  0  0  0  0  0  0  0
  -20.3030   38.3797  -23.0009 C   0  0  0  0  0  0  0  0  0  0  0  0
  -20.1602   39.7832  -22.7384 C   0  0  0  0  0  0  0  0  0  0  0  0
  -21.0866   40.8161  -22.9936 C   0  0  0  0  0  0  0  0  0  0  0  0
  -20.8317   42.1286  -22.6954 C   0  0  0  0  0  0  0  0  0  0  0  0
  -19.6225   42.4473  -22.1243 C   0  0  0  0  0  0  0  0  0  0  0  0
  -18.6925   41.4687  -21.8598 C   0  0  0  0  0  0  0  0  0  0  0  0
  -18.9664   40.1459  -22.1677 C   0  0  0  0  0  0  0  0  0  0  0  0
  -18.0495   38.6692  -21.9800 S   0  0  0  0  0  6  0  0  0  0  0  0
  -16.7694   38.6767  -22.7144 O   0  0  0  0  0  0  0  0  0  0  0  0
  -17.9041   38.3519  -20.5243 O   0  0  0  0  0  0  0  0  0  0  0  0
  -19.2111   37.5860  -22.6397 N   0  0  0  0  0  0  0  0  0  0  0  0
  -19.0745   36.1310  -22.7883 C   0  0  0  0  0  0  0  0  0  0  0  0
  -19.6030   35.3768  -21.2695 Cl  0  0  0  0  0  0  0  0  0  0  0  0
  1  2  2  0
  2  3  1  0
  3  4  2  0
  4  5  1  0
  5  6  2  0
  6  7  1  0
  7  8  2  0
  8  9  1  0
  9 10  2  0
  9 11  2  0
  9 12  1  0
 12 13  1  0
 13 14  1  0
 12  2  1  0
  8  3  1  0
M  END
$$$$
