
     RDKit          3D

 13 12  0  0  0  0  0  0  0  0999 V2000
  -22.4532   27.3822  -28.3611 C   0  0  0  0  0  0  0  0  0  0  0  0
  -22.5118   28.8067  -28.2434 N   0  0  0  0  0  0  0  0  0  0  0  0
  -21.3714   29.3566  -27.5272 C   0  0  0  0  0  0  0  0  0  0  0  0
  -21.5397   30.8400  -27.4668 C   0  0  2  0  0  0  0  0  0  0  0  0
  -21.6038   31.3565  -28.7733 O   0  0  0  0  0  0  0  0  0  0  0  0
  -20.4841   31.5356  -26.7204 C   0  0  0  0  0  0  0  0  0  0  0  0
  -19.5866   30.8466  -25.9730 C   0  0  0  0  0  0  0  0  0  0  0  0
  -18.5977   31.5143  -25.2725 C   0  0  0  0  0  0  0  0  0  0  0  0
  -18.5420   32.8832  -25.3479 C   0  0  0  0  0  0  0  0  0  0  0  0
  -19.4492   33.5781  -26.1033 C   0  0  0  0  0  0  0  0  0  0  0  0
  -19.3875   34.9811  -26.1771 O   0  0  0  0  0  0  0  0  0  0  0  0
  -20.4283   32.9158  -26.7968 C   0  0  0  0  0  0  0  0  0  0  0  0
  -20.9763   30.2428  -27.2896 Cl  0  0  0  0  0  0  0  0  0  0  0  0
  1  2  1  0
  2  3  1  0
  3  4  1  0
  4  5  1  6
  4  6  1  0
  6  7  2  0
  7  8  1  0
  8  9  2  0
  9 10  1  0
 10 11  1  0
 10 12  2  0
 12  6  1  0
M  END
$$$$
