
     RDKit          3D

 34 38  0  0  0  0  0  0  0  0999 V2000
  -28.1056   16.6904  -27.5384 N   0  0  0  0  0  0  0  0  0  0  0  0
  -28.1050   15.5737  -26.6145 C   0  0  0  0  0  0  0  0  0  0  0  0
  -27.0412   15.7715  -25.5496 C   0  0  0  0  0  0  0  0  0  0  0  0
  -27.0987   16.7739  -24.8184 O   0  0  0  0  0  0  0  0  0  0  0  0
  -26.0052   14.8222  -25.4017 N   0  0  0  0  0  0  0  0  0  0  0  0
  -25.1574   14.6781  -24.2826 C   0  0  0  0  0  0  0  0  0  0  0  0
  -24.8664   15.6391  -23.3459 C   0  0  0  0  0  0  0  0  0  0  0  0
  -24.0108   15.3741  -22.2821 C   0  0  0  0  0  0  0  0  0  0  0  0
  -23.4193   14.1524  -22.1147 C   0  0  0  0  0  0  0  0  0  0  0  0
  -22.5368   13.8882  -21.0130 N   0  0  0  0  0  0  0  0  0  0  0  0
  -21.3416   14.3891  -20.7560 N   0  0  0  0  0  0  0  0  0  0  0  0
  -20.8573   13.8706  -19.6144 C   0  0  0  0  0  0  0  0  0  0  0  0
  -19.5535   14.1736  -18.9838 C   0  0  0  0  0  0  0  0  0  0  0  0
  -18.6093   13.2325  -19.4004 F   0  0  0  0  0  0  0  0  0  0  0  0
  -19.6006   14.0976  -17.6106 F   0  0  0  0  0  0  0  0  0  0  0  0
  -19.0592   15.4034  -19.3694 F   0  0  0  0  0  0  0  0  0  0  0  0
  -21.7905   12.9916  -19.1134 C   0  0  0  0  0  0  0  0  0  0  0  0
  -22.8478   13.0277  -20.0300 C   0  0  0  0  0  0  0  0  0  0  0  0
  -24.0702   12.2437  -19.9026 C   0  0  0  0  0  0  0  0  0  0  0  0
  -24.0608   10.8981  -19.6675 C   0  0  0  0  0  0  0  0  0  0  0  0
  -25.2395   10.1763  -19.5508 C   0  0  0  0  0  0  0  0  0  0  0  0
  -26.4726   10.7820  -19.6663 C   0  0  0  0  0  0  0  0  0  0  0  0
  -26.4802   12.1508  -19.9054 C   0  0  0  0  0  0  0  0  0  0  0  0
  -27.6975   12.8074  -20.0297 C   0  0  0  0  0  0  0  0  0  0  0  0
  -28.8494   12.0748  -19.9109 C   0  0  0  0  0  0  0  0  0  0  0  0
  -28.8607   10.7270  -19.6756 C   0  0  0  0  0  0  0  0  0  0  0  0
  -30.0396   10.0109  -19.5599 C   0  0  0  0  0  0  0  0  0  0  0  0
  -30.0130    8.6645  -19.3245 C   0  0  0  0  0  0  0  0  0  0  0  0
  -28.8052    8.0115  -19.2009 C   0  0  0  0  0  0  0  0  0  0  0  0
  -27.6161    8.6970  -19.3112 C   0  0  0  0  0  0  0  0  0  0  0  0
  -27.6453   10.0493  -19.5476 C   0  0  0  0  0  0  0  0  0  0  0  0
  -25.2993   12.8543  -20.0189 C   0  0  0  0  0  0  0  0  0  0  0  0
  -23.7079   13.1862  -23.0507 C   0  0  0  0  0  0  0  0  0  0  0  0
  -24.5518   13.4232  -24.1133 C   0  0  0  0  0  0  0  0  0  0  0  0
  1  2  1  0
  2  3  1  0
  3  4  2  0
  3  5  1  0
  5  6  1  0
  6  7  2  0
  7  8  1  0
  8  9  2  0
  9 10  1  0
 10 11  1  0
 11 12  2  0
 12 13  1  0
 13 14  1  0
 13 15  1  0
 13 16  1  0
 12 17  1  0
 17 18  2  0
 18 19  1  0
 19 20  2  0
 20 21  1  0
 21 22  2  0
 22 23  1  0
 23 24  1  0
 24 25  2  0
 25 26  1  0
 26 27  2  0
 27 28  1  0
 28 29  2  0
 29 30  1  0
 30 31  2  0
 23 32  2  0
  9 33  1  0
 33 34  2  0
 34  6  1  0
 18 10  1  0
 32 19  1  0
 31 22  1  0
 31 26  1  0
M  END
$$$$
