
     RDKit          3D

 26 28  0  0  0  0  0  0  0  0999 V2000
   -8.6579   11.3238  -26.3605 C   0  0  0  0  0  0  0  0  0  0  0  0
  -10.0040   10.8911  -26.3761 N   0  0  0  0  0  0  0  0  0  0  0  0
  -10.2560    9.8638  -27.3357 C   0  0  0  0  0  0  0  0  0  0  0  0
  -11.0338   11.8119  -26.1247 C   0  0  0  0  0  0  0  0  0  0  0  0
  -12.0066   12.1136  -27.2126 C   0  0  0  0  0  0  0  0  0  0  0  0
  -13.0370   13.1441  -26.8940 C   0  0  0  0  0  0  0  0  0  0  0  0
  -13.8694   13.4046  -28.0496 N   0  0  0  0  0  0  0  0  0  0  0  0
  -15.2601   13.2311  -28.0459 C   0  0  0  0  0  0  0  0  0  0  0  0
  -15.7896   12.4510  -27.2208 O   0  0  0  0  0  0  0  0  0  0  0  0
  -16.1197   13.9425  -28.9883 C   0  0  0  0  0  0  0  0  0  0  0  0
  -16.1784   13.5304  -30.3267 C   0  0  0  0  0  0  0  0  0  0  0  0
  -16.9788   14.1820  -31.2346 C   0  0  0  0  0  0  0  0  0  0  0  0
  -17.7529   15.2604  -30.8739 C   0  0  0  0  0  0  0  0  0  0  0  0
  -18.6049   15.9603  -31.8227 C   0  0  0  0  0  0  0  0  0  0  0  0
  -18.0207   16.4577  -32.9666 C   0  0  0  0  0  0  0  0  0  0  0  0
  -18.8290   17.1191  -33.8629 C   0  0  0  0  0  0  0  0  0  0  0  0
  -18.2524   17.6184  -35.0071 O   0  0  0  0  0  0  0  0  0  0  0  0
  -20.1906   17.2945  -33.6486 C   0  0  0  0  0  0  0  0  0  0  0  0
  -20.9602   17.9515  -34.5518 N   0  0  0  0  0  0  0  0  0  0  0  0
  -22.2788   18.1229  -34.3470 C   0  0  0  0  0  0  0  0  0  0  0  0
  -22.9089   17.6413  -33.2143 C   0  0  0  0  0  0  0  0  0  0  0  0
  -22.1183   16.9723  -32.2972 C   0  0  0  0  0  0  0  0  0  0  0  0
  -20.7588   16.7913  -32.5002 C   0  0  0  0  0  0  0  0  0  0  0  0
  -19.9554   16.1229  -31.5893 C   0  0  0  0  0  0  0  0  0  0  0  0
  -17.7187   15.6887  -29.5745 C   0  0  0  0  0  0  0  0  0  0  0  0
  -16.9044   15.0212  -28.6631 C   0  0  0  0  0  0  0  0  0  0  0  0
  1  2  1  0
  2  3  1  0
  2  4  1  0
  4  5  1  0
  5  6  1  0
  6  7  1  0
  7  8  1  0
  8  9  2  0
  8 10  1  0
 10 11  2  0
 11 12  1  0
 12 13  2  0
 13 14  1  0
 14 15  2  0
 15 16  1  0
 16 17  1  0
 16 18  2  0
 18 19  1  0
 19 20  2  0
 20 21  1  0
 21 22  2  0
 22 23  1  0
 23 24  2  0
 13 25  1  0
 25 26  2  0
 26 10  1  0
 24 14  1  0
 23 18  1  0
M  END
$$$$
