
     RDKit          3D

 34 37  0  0  0  0  0  0  0  0999 V2000
  -11.6373   46.1415  -17.0651 C   0  0  0  0  0  0  0  0  0  0  0  0
  -12.5902   45.0336  -16.9073 C   0  0  0  0  0  0  0  0  0  0  0  0
  -13.6966   44.9994  -17.7461 C   0  0  0  0  0  0  0  0  0  0  0  0
  -14.6265   43.9601  -17.6227 C   0  0  0  0  0  0  0  0  0  0  0  0
  -15.7660   43.9196  -18.5317 C   0  0  0  0  0  0  0  0  0  0  0  0
  -15.6853   44.3928  -19.8492 C   0  0  0  0  0  0  0  0  0  0  0  0
  -16.9144   44.2083  -20.4188 C   0  0  0  0  0  0  0  0  0  0  0  0
  -17.7034   43.6270  -19.4245 C   0  0  0  0  0  0  0  0  0  0  0  0
  -19.1038   43.2920  -19.7037 C   0  0  0  0  0  0  0  0  0  0  0  0
  -19.5520   42.8821  -20.8534 C   0  0  0  0  0  0  0  0  0  0  0  0
  -18.7519   42.9072  -22.4647 S   0  0  0  0  0  0  0  0  0  0  0  0
  -20.1192   42.1623  -23.3363 C   0  0  0  0  0  0  0  0  0  0  0  0
  -20.1939   41.8607  -24.7204 N   0  0  0  0  0  0  0  0  0  0  0  0
  -20.4385   40.5376  -25.1953 C   0  0  0  0  0  0  0  0  0  0  0  0
  -21.2362   40.2436  -26.2757 C   0  0  0  0  0  0  0  0  0  0  0  0
  -21.4518   38.9318  -26.6996 C   0  0  0  0  0  0  0  0  0  0  0  0
  -20.8587   37.8858  -26.0309 C   0  0  0  0  0  0  0  0  0  0  0  0
  -21.1114   36.2157  -26.5445 Cl  0  0  0  0  0  0  0  0  0  0  0  0
  -20.0575   38.1597  -24.9478 C   0  0  0  0  0  0  0  0  0  0  0  0
  -19.4313   37.0511  -24.2393 C   0  0  0  0  0  0  0  0  0  0  0  0
  -19.6429   35.8872  -24.6213 O   0  0  0  0  0  0  0  0  0  0  0  0
  -18.6039   37.3146  -23.1432 O   0  0  0  0  0  0  0  0  0  0  0  0
  -19.8555   39.4764  -24.5417 C   0  0  0  0  0  0  0  0  0  0  0  0
  -21.0285   41.9425  -22.4882 N   0  0  0  0  0  0  0  0  0  0  0  0
  -20.8374   42.2790  -21.1649 C   0  0  0  0  0  0  0  0  0  0  0  0
  -21.7284   42.0763  -20.2600 O   0  0  0  0  0  0  0  0  0  0  0  0
  -16.9824   43.4884  -18.3644 O   0  0  0  0  0  0  0  0  0  0  0  0
  -14.4283   43.0001  -16.6784 C   0  0  0  0  0  0  0  0  0  0  0  0
  -15.2818   41.9264  -16.4685 N   0  0  0  0  0  4  0  0  0  0  0  0
  -15.7435   41.5787  -15.3941 O   0  0  0  0  0  0  0  0  0  0  0  0
  -15.6277   41.1183  -17.5572 O   0  0  0  0  0  1  0  0  0  0  0  0
  -13.2874   43.0529  -15.8295 C   0  0  0  0  0  0  0  0  0  0  0  0
  -12.3802   44.0662  -15.9503 C   0  0  0  0  0  0  0  0  0  0  0  0
  -11.1738   44.1630  -15.0909 C   0  0  0  0  0  0  0  0  0  0  0  0
  1  2  1  0
  2  3  2  0
  3  4  1  0
  4  5  1  0
  5  6  2  0
  6  7  1  0
  7  8  2  0
  8  9  1  0
  9 10  2  0
 10 11  1  0
 11 12  1  0
 12 13  1  0
 13 14  1  0
 14 15  2  0
 15 16  1  0
 16 17  2  0
 17 18  1  0
 17 19  1  0
 19 20  1  0
 20 21  2  0
 20 22  1  0
 19 23  2  0
 12 24  2  0
 24 25  1  0
 25 26  2  0
  8 27  1  0
  4 28  2  0
 28 29  1  0
 29 30  2  0
 29 31  1  0
 28 32  1  0
 32 33  2  0
 33 34  1  0
 33  2  1  0
 27  5  1  0
 25 10  1  0
 23 14  1  0
M  CHG  2  29   1  31  -1
M  END
$$$$
