
     RDKit          3D

 30 30  0  0  0  0  0  0  0  0999 V2000
  -18.7749   30.0352  -20.8273 C   0  0  0  0  0  0  0  0  0  0  0  0
  -19.3080   31.4431  -20.8068 C   0  0  0  0  0  0  0  0  0  0  0  0
  -20.6089   31.7144  -21.1718 C   0  0  0  0  0  0  0  0  0  0  0  0
  -21.0712   33.0198  -21.1434 C   0  0  0  0  0  0  0  0  0  0  0  0
  -20.1881   34.0100  -20.7419 C   0  0  0  0  0  0  0  0  0  0  0  0
  -18.8953   33.7340  -20.3800 C   0  0  0  0  0  0  0  0  0  0  0  0
  -17.9162   34.7625  -19.9408 C   0  0  0  0  0  0  0  0  0  0  0  0
  -18.4547   36.1491  -19.9317 C   0  0  0  0  0  0  0  0  0  0  0  0
  -18.9141   36.6536  -21.1858 N   0  0  0  0  0  0  0  0  0  0  0  0
  -19.4015   37.9964  -20.9785 C   0  0  0  0  0  0  0  0  0  0  0  0
  -19.5398   38.7947  -22.2561 C   0  0  0  0  0  0  0  0  0  0  0  0
  -18.2458   38.9019  -23.0047 C   0  0  0  0  0  0  0  0  0  0  0  0
  -17.6743   40.2552  -22.9844 C   0  0  0  0  0  0  0  0  0  0  0  0
  -16.5481   40.4629  -22.4461 O   0  0  0  0  0  0  0  0  0  0  0  0
  -18.3576   41.4081  -23.5705 C   0  0  0  0  0  0  0  0  0  0  0  0
  -17.7926   42.6746  -23.5138 C   0  0  0  0  0  0  0  0  0  0  0  0
  -18.4430   43.7427  -24.0724 C   0  0  0  0  0  0  0  0  0  0  0  0
  -19.6817   43.5564  -24.7027 C   0  0  0  0  0  0  0  0  0  0  0  0
  -20.3019   44.6800  -25.2643 N   0  0  0  0  0  0  0  0  0  0  0  0
  -20.9542   44.7097  -26.8240 S   0  0  0  0  0  6  0  0  0  0  0  0
  -22.2660   43.5801  -27.0878 C   0  0  0  0  0  0  0  0  0  0  0  0
  -19.8920   44.4245  -27.8864 O   0  0  0  0  0  0  0  0  0  0  0  0
  -21.4829   46.1021  -27.1538 O   0  0  0  0  0  0  0  0  0  0  0  0
  -20.2524   42.3106  -24.7662 C   0  0  0  0  0  0  0  0  0  0  0  0
  -19.5676   41.2363  -24.1881 C   0  0  0  0  0  0  0  0  0  0  0  0
  -17.2385   37.9192  -22.4557 C   0  0  0  0  0  0  0  0  0  0  0  0
  -17.9402   36.5975  -22.2304 C   0  0  0  0  0  0  0  0  0  0  0  0
  -18.5081   32.4485  -20.4290 N   0  0  0  0  0  0  0  0  0  0  0  0
  -19.3916   38.7778  -23.0703 Cl  0  0  0  0  0  0  0  0  0  0  0  0
  -19.3919   38.7810  -23.0718 Cl  0  0  0  0  0  0  0  0  0  0  0  0
  1  2  1  0
  2  3  2  0
  3  4  1  0
  4  5  2  0
  5  6  1  0
  6  7  1  0
  7  8  1  0
  8  9  1  0
  9 10  1  0
 10 11  1  0
 11 12  1  0
 12 13  1  0
 13 14  2  0
 13 15  1  0
 15 16  2  0
 16 17  1  0
 17 18  2  0
 18 19  1  0
 19 20  1  0
 20 21  1  0
 20 22  2  0
 20 23  2  0
 18 24  1  0
 24 25  2  0
 12 26  1  0
 26 27  1  0
  6 28  2  0
 28  2  1  0
 27  9  1  0
 25 15  1  0
M  END
$$$$
