
     RDKit          3D

 11  9  0  0  0  0  0  0  0  0999 V2000
  -20.8141   14.5071  -30.7324 C   0  0  0  0  0  0  0  0  0  0  0  0
  -20.1743   15.4571  -31.5964 N   0  0  0  0  0  4  0  0  0  0  0  0
  -21.0627   16.6243  -31.6717 C   0  0  0  0  0  0  0  0  0  0  0  0
  -20.1175   14.9314  -32.9636 C   0  0  0  0  0  0  0  0  0  0  0  0
  -18.8483   15.8160  -31.2132 C   0  0  0  0  0  0  0  0  0  0  0  0
  -18.4947   15.4894  -29.8001 C   0  0  0  0  0  0  0  0  0  0  0  0
  -17.1428   15.9149  -29.5941 O   0  0  0  0  0  0  0  0  0  0  0  0
  -16.5239   15.7448  -28.3673 C   0  0  0  0  0  0  0  0  0  0  0  0
  -15.1899   16.1404  -28.0887 N   0  0  0  0  0  0  0  0  0  0  0  0
  -17.1770   15.2084  -27.4398 O   0  0  0  0  0  0  0  0  0  0  0  0
  -19.0187   15.6048  -30.7193 Cl  0  0  0  0  0 15  0  0  0  0  0  0
  1  2  1  0
  2  3  1  0
  2  4  1  0
  2  5  1  0
  5  6  1  0
  6  7  1  0
  7  8  1  0
  8  9  1  0
  8 10  2  0
M  CHG  2   2   1  11  -1
M  END
$$$$
