
     RDKit          3D

 38 44  0  0  0  0  0  0  0  0999 V2000
  -20.9197   33.6378  -21.5545 N   0  0  0  0  0  0  0  0  0  0  0  0
  -20.3725   34.9231  -21.8543 C   0  0  0  0  0  0  0  0  0  0  0  0
  -19.6426   35.6596  -20.9765 N   0  0  0  0  0  0  0  0  0  0  0  0
  -19.2503   36.8179  -21.5007 C   0  0  0  0  0  0  0  0  0  0  0  0
  -18.4849   37.8870  -20.9658 N   0  0  0  0  0  0  0  0  0  0  0  0
  -18.4683   39.1797  -21.5127 C   0  0  0  0  0  0  0  0  0  0  0  0
  -17.3446   39.9160  -21.6953 C   0  0  0  0  0  0  0  0  0  0  0  0
  -17.3828   41.2083  -22.2446 C   0  0  0  0  0  0  0  0  0  0  0  0
  -18.5741   41.7566  -22.6115 C   0  0  0  0  0  0  0  0  0  0  0  0
  -19.7226   41.0348  -22.4380 C   0  0  0  0  0  0  0  0  0  0  0  0
  -19.6781   39.7811  -21.9041 C   0  0  0  0  0  0  0  0  0  0  0  0
  -21.1137   41.4314  -22.7630 C   0  0  0  0  0  0  0  0  0  0  0  0
  -21.1739   42.9570  -22.9378 C   0  0  0  0  0  0  0  0  0  0  0  0
  -20.6807   43.3481  -24.3120 C   0  0  1  0  0  0  0  0  0  0  0  0
  -21.2574   44.6144  -24.6781 N   0  0  0  0  0  0  0  0  0  0  0  0
  -22.5404   44.4849  -25.3223 C   0  0  0  0  0  0  0  0  0  0  0  0
  -22.5073   45.3161  -26.5775 C   0  0  0  0  0  0  0  0  0  0  0  0
  -21.0296   45.4879  -26.8739 C   0  0  0  0  0  0  0  0  0  0  0  0
  -20.4407   45.4559  -25.4800 C   0  0  0  0  0  0  0  0  0  0  0  0
  -19.2094   43.2730  -24.4849 C   0  0  0  0  0  0  0  0  0  0  0  0
  -18.4692   43.1306  -23.1790 C   0  0  0  0  0  0  0  0  0  0  0  0
  -19.7686   36.7933  -22.7744 N   0  0  0  0  0  0  0  0  0  0  0  0
  -20.4336   35.6495  -22.9565 N   0  0  0  0  0  0  0  0  0  0  0  0
  -21.0897   35.3240  -24.1835 C   0  0  0  0  0  0  0  0  0  0  0  0
  -22.1882   34.5183  -24.2166 C   0  0  0  0  0  0  0  0  0  0  0  0
  -22.7983   34.2281  -25.4549 C   0  0  0  0  0  0  0  0  0  0  0  0
  -22.2458   34.7817  -26.5890 C   0  0  0  0  0  0  0  0  0  0  0  0
  -21.1619   35.5731  -26.5287 N   0  0  0  0  0  0  0  0  0  0  0  0
  -20.6285   35.8153  -25.3562 N   0  0  0  0  0  0  0  0  0  0  0  0
  -22.7365   34.5956  -27.9505 C   0  0  0  0  0  0  0  0  0  0  0  0
  -21.8117   35.0165  -28.8759 C   0  0  0  0  0  0  0  0  0  0  0  0
  -22.1056   34.9161  -30.2375 C   0  0  0  0  0  0  0  0  0  0  0  0
  -23.3064   34.4023  -30.6658 C   0  0  0  0  0  0  0  0  0  0  0  0
  -24.2138   33.9884  -29.7140 C   0  0  0  0  0  0  0  0  0  0  0  0
  -23.9305   34.0845  -28.3655 C   0  0  0  0  0  0  0  0  0  0  0  0
  -25.0261   33.5900  -27.4826 C   0  0  0  0  0  0  0  0  0  0  0  0
  -24.3838   32.6298  -26.4913 C   0  0  0  0  0  0  0  0  0  0  0  0
  -23.9587   33.3442  -25.2361 C   0  0  0  0  0  0  0  0  0  0  0  0
  1  2  1  0
  2  3  2  0
  3  4  1  0
  4  5  1  0
  5  6  1  0
  6  7  2  0
  7  8  1  0
  8  9  2  0
  9 10  1  0
 10 11  2  0
 10 12  1  0
 12 13  1  0
 13 14  1  0
 14 15  1  1
 15 16  1  0
 16 17  1  0
 17 18  1  0
 18 19  1  0
 14 20  1  0
 20 21  1  0
  4 22  2  0
 22 23  1  0
 23 24  1  0
 24 25  2  0
 25 26  1  0
 26 27  2  0
 27 28  1  0
 28 29  2  0
 27 30  1  0
 30 31  2  0
 31 32  1  0
 32 33  2  0
 33 34  1  0
 34 35  2  0
 35 36  1  0
 36 37  1  0
 37 38  1  0
 23  2  1  0
 29 24  1  0
 35 30  1  0
 11  6  1  0
 19 15  1  0
 38 26  1  0
 21  9  1  0
M  END
$$$$
