
     RDKit          3D

 33 35  0  0  0  0  0  0  0  0999 V2000
  -18.9971   39.2619  -24.3928 C   0  0  0  0  0  0  0  0  0  0  0  0
  -19.5226   39.6367  -23.0851 N   0  0  0  0  0  0  0  0  0  0  0  0
  -20.3210   38.7016  -22.3896 C   0  0  0  0  0  0  0  0  0  0  0  0
  -19.5643   37.4653  -22.0008 C   0  0  0  0  0  0  0  0  0  0  0  0
  -18.2108   37.3872  -22.2375 C   0  0  0  0  0  0  0  0  0  0  0  0
  -17.4890   36.2815  -21.8953 N   0  0  0  0  0  0  0  0  0  0  0  0
  -18.0822   35.2266  -21.3120 C   0  0  0  0  0  0  0  0  0  0  0  0
  -17.4082   34.1133  -20.9555 N   0  0  0  0  0  0  0  0  0  0  0  0
  -17.9866   33.0509  -20.3702 C   0  0  0  0  0  0  0  0  0  0  0  0
  -17.2447   31.8943  -20.0065 N   0  0  0  0  0  0  0  0  0  0  0  0
  -19.3228   33.1336  -20.1389 N   0  0  0  0  0  0  0  0  0  0  0  0
  -20.0396   34.2207  -20.4755 C   0  0  0  0  0  0  0  0  0  0  0  0
  -21.4404   34.3143  -20.2370 N   0  0  0  0  0  0  0  0  0  0  0  0
  -19.4403   35.3088  -21.0762 C   0  0  0  0  0  0  0  0  0  0  0  0
  -20.1542   36.4090  -21.4177 N   0  0  0  0  0  0  0  0  0  0  0  0
  -19.2313   40.9191  -22.5467 C   0  0  0  0  0  0  0  0  0  0  0  0
  -19.1539   42.0848  -23.2604 C   0  0  0  0  0  0  0  0  0  0  0  0
  -18.8621   43.3256  -22.6921 C   0  0  0  0  0  0  0  0  0  0  0  0
  -18.6352   43.4335  -21.3668 C   0  0  0  0  0  0  0  0  0  0  0  0
  -18.3243   44.7127  -20.7518 C   0  0  0  0  0  0  0  0  0  0  0  0
  -18.1307   44.6859  -19.4848 O   0  0  0  0  0  0  0  0  0  0  0  0
  -18.2331   45.9158  -21.4643 N   0  0  0  0  0  0  0  0  0  0  0  0
  -18.2763   47.2509  -20.9019 C   0  0  1  0  0  0  0  0  0  0  0  0
  -18.6221   48.3392  -21.8793 C   0  0  0  0  0  0  0  0  0  0  0  0
  -17.6015   49.4169  -21.9426 C   0  0  0  0  0  0  0  0  0  0  0  0
  -17.8090   50.2908  -23.1122 C   0  0  0  0  0  0  0  0  0  0  0  0
  -18.7226   50.0927  -23.9395 O   0  0  0  0  0  0  0  0  0  0  0  0
  -16.9878   51.3995  -23.3627 O   0  0  0  0  0  0  0  0  0  0  0  0
  -19.0035   47.3753  -19.6516 C   0  0  0  0  0  0  0  0  0  0  0  0
  -19.7276   46.4411  -19.1898 O   0  0  0  0  0  0  0  0  0  0  0  0
  -18.9149   48.5502  -18.9228 O   0  0  0  0  0  0  0  0  0  0  0  0
  -18.7070   42.2647  -20.6136 C   0  0  0  0  0  0  0  0  0  0  0  0
  -18.9930   41.0465  -21.1664 C   0  0  0  0  0  0  0  0  0  0  0  0
  1  2  1  0
  2  3  1  0
  3  4  1  0
  4  5  2  0
  5  6  1  0
  6  7  2  0
  7  8  1  0
  8  9  2  0
  9 10  1  0
  9 11  1  0
 11 12  2  0
 12 13  1  0
 12 14  1  0
 14 15  2  0
  2 16  1  0
 16 17  2  0
 17 18  1  0
 18 19  2  0
 19 20  1  0
 20 21  2  0
 20 22  1  0
 22 23  1  0
 23 24  1  6
 24 25  1  0
 25 26  1  0
 26 27  2  0
 26 28  1  0
 23 29  1  0
 29 30  2  0
 29 31  1  0
 19 32  1  0
 32 33  2  0
 15  4  1  0
 33 16  1  0
 14  7  1  0
M  END
$$$$
