
     RDKit          3D

 28 30  0  0  0  0  0  0  0  0999 V2000
  -25.3894   32.3813  -35.3380 C   0  0  0  0  0  0  0  0  0  0  0  0
  -25.8024   31.0061  -35.1043 N   0  0  0  0  0  0  0  0  0  0  0  0
  -26.0143   30.7409  -33.7161 C   0  0  0  0  0  0  0  0  0  0  0  0
  -26.0239   29.2891  -33.3564 C   0  0  0  0  0  0  0  0  0  0  0  0
  -25.7291   28.3708  -34.5239 C   0  0  0  0  0  0  0  0  0  0  0  0
  -26.9485   28.3420  -35.4005 C   0  0  0  0  0  0  0  0  0  0  0  0
  -27.2347   27.0367  -35.9524 N   0  0  0  0  0  0  0  0  0  0  0  0
  -26.4428   26.0033  -35.8449 N   0  0  0  0  0  0  0  0  0  0  0  0
  -26.7162   24.7684  -36.3713 C   0  0  0  0  0  0  0  0  0  0  0  0
  -25.7656   23.6650  -36.2576 C   0  0  0  0  0  0  0  0  0  0  0  0
  -24.8807   23.4695  -37.4282 C   0  0  0  0  0  0  0  0  0  0  0  0
  -23.8703   24.4110  -37.6834 C   0  0  0  0  0  0  0  0  0  0  0  0
  -22.9917   24.2916  -38.7365 C   0  0  0  0  0  0  0  0  0  0  0  0
  -23.0774   23.2188  -39.5941 C   0  0  0  0  0  0  0  0  0  0  0  0
  -21.9629   23.0440  -40.9525 Cl  0  0  0  0  0  0  0  0  0  0  0  0
  -24.0539   22.2791  -39.3735 C   0  0  0  0  0  0  0  0  0  0  0  0
  -24.9379   22.4171  -38.2977 C   0  0  0  0  0  0  0  0  0  0  0  0
  -27.9011   24.6387  -37.0455 C   0  0  0  0  0  0  0  0  0  0  0  0
  -28.3156   23.4523  -37.6137 C   0  0  0  0  0  0  0  0  0  0  0  0
  -29.5258   23.3803  -38.2712 C   0  0  0  0  0  0  0  0  0  0  0  0
  -30.3745   24.4530  -38.3999 C   0  0  0  0  0  0  0  0  0  0  0  0
  -29.9834   25.6427  -37.8409 C   0  0  0  0  0  0  0  0  0  0  0  0
  -28.7789   25.7205  -37.1845 C   0  0  0  0  0  0  0  0  0  0  0  0
  -28.3949   26.9094  -36.6141 C   0  0  0  0  0  0  0  0  0  0  0  0
  -29.1927   27.9042  -36.7370 O   0  0  0  0  0  0  0  0  0  0  0  0
  -26.7032   29.3240  -36.5307 C   0  0  0  0  0  0  0  0  0  0  0  0
  -26.9637   30.7067  -35.9309 C   0  0  0  0  0  0  0  0  0  0  0  0
  -26.4893   27.4246  -36.2501 Cl  0  0  0  0  0  0  0  0  0  0  0  0
  1  2  1  0
  2  3  1  0
  3  4  1  0
  4  5  1  0
  5  6  1  0
  6  7  1  0
  7  8  1  0
  8  9  2  0
  9 10  1  0
 10 11  1  0
 11 12  2  0
 12 13  1  0
 13 14  2  0
 14 15  1  0
 14 16  1  0
 16 17  2  0
  9 18  1  0
 18 19  2  0
 19 20  1  0
 20 21  2  0
 21 22  1  0
 22 23  2  0
 23 24  1  0
 24 25  2  0
  6 26  1  0
 26 27  1  0
 27  2  1  0
 24  7  1  0
 17 11  1  0
 23 18  1  0
M  END
$$$$
