
     RDKit          3D

 35 36  0  0  0  0  0  0  0  0999 V2000
  -13.2250   -2.2338  -36.3196 C   0  0  0  0  0  0  0  0  0  0  0  0
  -13.5179   -3.6019  -35.7743 C   0  0  0  0  0  0  0  0  0  0  0  0
  -12.7228   -4.6865  -36.4707 C   0  0  0  0  0  0  0  0  0  0  0  0
  -13.1521   -3.7165  -34.0016 S   0  0  0  0  0  0  0  0  0  0  0  0
  -14.1676   -2.7027  -32.9893 C   0  0  0  0  0  0  0  0  0  0  0  0
  -15.2893   -3.1642  -32.3424 C   0  0  0  0  0  0  0  0  0  0  0  0
  -16.0313   -2.2971  -31.5627 C   0  0  0  0  0  0  0  0  0  0  0  0
  -17.2505   -2.8071  -30.8608 C   0  0  0  0  0  0  0  0  0  0  0  0
  -17.1778   -2.4815  -29.3644 C   0  0  0  0  0  0  0  0  0  0  0  0
  -17.4252   -4.2848  -31.0021 C   0  0  0  0  0  0  0  0  0  0  0  0
  -18.4713   -2.1032  -31.3853 C   0  0  0  0  0  0  0  0  0  0  0  0
  -15.6530   -0.9786  -31.4318 C   0  0  0  0  0  0  0  0  0  0  0  0
  -16.4228   -0.1201  -30.6347 O   0  0  0  0  0  0  0  0  0  0  0  0
  -14.5331   -0.4958  -32.0711 C   0  0  0  0  0  0  0  0  0  0  0  0
  -14.1369    0.9363  -31.9188 C   0  0  0  0  0  0  0  0  0  0  0  0
  -15.2464    1.8828  -32.2611 C   0  0  0  0  0  0  0  0  0  0  0  0
  -13.7324    1.1860  -30.4780 C   0  0  0  0  0  0  0  0  0  0  0  0
  -12.9448    1.1736  -32.8118 C   0  0  0  0  0  0  0  0  0  0  0  0
  -13.8194   -1.3812  -32.8366 C   0  0  0  0  0  0  0  0  0  0  0  0
  -15.3052   -3.9094  -35.9204 S   0  0  0  0  0  0  0  0  0  0  0  0
  -16.1905   -2.6252  -36.7284 C   0  0  0  0  0  0  0  0  0  0  0  0
  -16.6911   -2.7927  -38.0031 C   0  0  0  0  0  0  0  0  0  0  0  0
  -17.3889   -1.7534  -38.6246 C   0  0  0  0  0  0  0  0  0  0  0  0
  -17.9467   -1.8933  -39.9992 C   0  0  0  0  0  0  0  0  0  0  0  0
  -19.4399   -1.6348  -40.0002 C   0  0  0  0  0  0  0  0  0  0  0  0
  -17.3345   -0.8559  -40.9285 C   0  0  0  0  0  0  0  0  0  0  0  0
  -17.6257   -3.2530  -40.5799 C   0  0  0  0  0  0  0  0  0  0  0  0
  -17.5824   -0.5554  -37.9714 C   0  0  0  0  0  0  0  0  0  0  0  0
  -18.2741    0.4606  -38.6013 O   0  0  0  0  0  0  0  0  0  0  0  0
  -17.0858   -0.3669  -36.6865 C   0  0  0  0  0  0  0  0  0  0  0  0
  -17.2887    0.9140  -35.9826 C   0  0  0  0  0  0  0  0  0  0  0  0
  -18.7667    1.2314  -35.9352 C   0  0  0  0  0  0  0  0  0  0  0  0
  -16.5923    1.9972  -36.7786 C   0  0  0  0  0  0  0  0  0  0  0  0
  -16.7823    0.8768  -34.5558 C   0  0  0  0  0  0  0  0  0  0  0  0
  -16.3920   -1.4241  -36.0900 C   0  0  0  0  0  0  0  0  0  0  0  0
  1  2  1  0
  2  3  1  0
  2  4  1  0
  4  5  1  0
  5  6  2  0
  6  7  1  0
  7  8  1  0
  8  9  1  0
  8 10  1  0
  8 11  1  0
  7 12  2  0
 12 13  1  0
 12 14  1  0
 14 15  1  0
 15 16  1  0
 15 17  1  0
 15 18  1  0
 14 19  2  0
  2 20  1  0
 20 21  1  0
 21 22  2  0
 22 23  1  0
 23 24  1  0
 24 25  1  0
 24 26  1  0
 24 27  1  0
 23 28  2  0
 28 29  1  0
 28 30  1  0
 30 31  1  0
 31 32  1  0
 31 33  1  0
 31 34  1  0
 30 35  2  0
 19  5  1  0
 35 21  1  0
M  END
$$$$
