
     RDKit          3D

 27 30  0  0  0  0  0  0  0  0999 V2000
  -26.1047   23.0644  -36.5733 O   0  0  0  0  0  0  0  0  0  0  0  0
  -26.5804   24.1460  -37.0697 C   0  0  0  0  0  0  0  0  0  0  0  0
  -25.6472   25.2054  -37.2076 N   0  0  0  0  0  0  0  0  0  0  0  0
  -24.5137   25.3196  -36.3366 C   0  0  0  0  0  0  0  0  0  0  0  0
  -23.7005   24.2120  -36.1213 C   0  0  0  0  0  0  0  0  0  0  0  0
  -22.5963   24.2589  -35.2997 C   0  0  0  0  0  0  0  0  0  0  0  0
  -22.2699   25.4303  -34.6617 C   0  0  0  0  0  0  0  0  0  0  0  0
  -23.0941   26.5445  -34.8825 C   0  0  0  0  0  0  0  0  0  0  0  0
  -24.1997   26.4917  -35.7071 C   0  0  0  0  0  0  0  0  0  0  0  0
  -25.0554   27.6655  -35.9209 C   0  0  0  0  0  0  0  0  0  0  0  0
  -25.0222   28.6765  -35.0017 N   0  0  0  0  0  0  0  0  0  0  0  0
  -25.7677   29.7881  -35.1110 C   0  0  0  0  0  0  0  0  0  0  0  0
  -25.7330   30.8068  -34.1850 C   0  0  0  0  0  0  0  0  0  0  0  0
  -26.5038   31.9536  -34.3017 C   0  0  0  0  0  0  0  0  0  0  0  0
  -27.3543   32.1274  -35.3695 C   0  0  0  0  0  0  0  0  0  0  0  0
  -27.3924   31.1115  -36.2980 C   0  0  0  0  0  0  0  0  0  0  0  0
  -26.6199   29.9660  -36.1779 C   0  0  0  0  0  0  0  0  0  0  0  0
  -26.6617   28.9844  -37.0840 N   0  0  0  0  0  0  0  0  0  0  0  0
  -25.8999   27.8459  -36.9747 C   0  0  0  0  0  0  0  0  0  0  0  0
  -26.0232   26.9963  -37.8837 O   0  0  0  0  0  0  0  0  0  0  0  0
  -27.9843   24.2091  -37.4389 C   0  0  0  0  0  0  0  0  0  0  0  0
  -28.9027   23.3990  -36.8229 C   0  0  0  0  0  0  0  0  0  0  0  0
  -30.2379   23.4781  -37.1906 C   0  0  0  0  0  0  0  0  0  0  0  0
  -30.6944   24.3413  -38.1567 C   0  0  0  0  0  0  0  0  0  0  0  0
  -32.0082   24.3756  -38.4746 F   0  0  0  0  0  0  0  0  0  0  0  0
  -29.7512   25.1510  -38.7670 C   0  0  0  0  0  0  0  0  0  0  0  0
  -28.4135   25.0924  -38.4194 C   0  0  0  0  0  0  0  0  0  0  0  0
  1  2  2  0
  2  3  1  0
  3  4  1  0
  4  5  2  0
  5  6  1  0
  6  7  2  0
  7  8  1  0
  8  9  2  0
  9 10  1  0
 10 11  2  0
 11 12  1  0
 12 13  2  0
 13 14  1  0
 14 15  2  0
 15 16  1  0
 16 17  2  0
 17 18  1  0
 18 19  1  0
 19 20  2  0
  2 21  1  0
 21 22  2  0
 22 23  1  0
 23 24  2  0
 24 25  1  0
 24 26  1  0
 26 27  2  0
  9  4  1  0
 19 10  1  0
 27 21  1  0
 17 12  1  0
M  END
$$$$
