
     RDKit          3D

 15 14  0  0  0  0  0  0  0  0999 V2000
  -28.7808   16.8389  -23.5882 N   0  0  0  0  0  0  0  0  0  0  0  0
  -28.1700   16.2961  -22.6020 C   0  0  0  0  0  0  0  0  0  0  0  0
  -28.7532   15.2715  -21.8197 N   0  0  0  0  0  0  0  0  0  0  0  0
  -30.1090   14.8601  -22.0823 C   0  0  0  0  0  0  0  0  0  0  0  0
  -30.6428   13.9616  -20.9931 C   0  0  0  0  0  0  0  0  0  0  0  0
  -31.1877   12.6861  -21.5915 C   0  0  0  0  0  0  0  0  0  0  0  0
  -31.6133   11.7124  -20.4923 C   0  0  2  0  0  0  0  0  0  0  0  0
  -30.4248   11.1212  -19.9051 N   0  0  0  0  0  0  0  0  0  0  0  0
  -32.4509   10.6415  -21.0914 C   0  0  0  0  0  0  0  0  0  0  0  0
  -31.9538    9.5625  -21.4705 O   0  0  0  0  0  0  0  0  0  0  0  0
  -33.8185   10.8111  -21.2478 O   0  0  0  0  0  0  0  0  0  0  0  0
  -26.8480   16.7741  -22.3144 N   0  0  0  0  0  0  0  0  0  0  0  0
  -26.2669   17.7061  -23.1708 N   0  0  0  0  0  4  0  0  0  0  0  0
  -26.8959   18.2262  -24.1060 O   0  0  0  0  0  0  0  0  0  0  0  0
  -24.9682   18.0602  -22.9793 O   0  0  0  0  0  1  0  0  0  0  0  0
  1  2  2  0
  2  3  1  0
  3  4  1  0
  4  5  1  0
  5  6  1  0
  6  7  1  0
  7  8  1  6
  7  9  1  0
  9 10  2  0
  9 11  1  0
  2 12  1  0
 12 13  1  0
 13 14  2  0
 13 15  1  0
M  CHG  2  13   1  15  -1
M  END
$$$$
