
     RDKit          3D

 26 29  0  0  0  0  0  0  0  0999 V2000
  -17.9855   39.5274  -23.6483 C   0  0  0  0  0  0  0  0  0  0  0  0
  -18.9155   40.3486  -22.8909 C   0  0  0  0  0  0  0  0  0  0  0  0
  -18.3989   41.3413  -22.0514 C   0  0  0  0  0  0  0  0  0  0  0  0
  -17.1230   41.7537  -21.7490 C   0  0  0  0  0  0  0  0  0  0  0  0
  -16.0808   41.2741  -22.2128 O   0  0  0  0  0  0  0  0  0  0  0  0
  -17.2015   42.7482  -20.8794 N   0  0  0  0  0  0  0  0  0  0  0  0
  -16.1199   43.4955  -20.2770 C   0  0  0  0  0  0  0  0  0  0  0  0
  -15.7164   43.2903  -18.9762 C   0  0  0  0  0  0  0  0  0  0  0  0
  -14.6764   44.0165  -18.4141 C   0  0  0  0  0  0  0  0  0  0  0  0
  -14.0037   44.9758  -19.1389 C   0  0  0  0  0  0  0  0  0  0  0  0
  -14.4004   45.1880  -20.4411 C   0  0  0  0  0  0  0  0  0  0  0  0
  -15.4470   44.4547  -21.0013 C   0  0  0  0  0  0  0  0  0  0  0  0
  -15.9501   44.7289  -22.6638 Cl  0  0  0  0  0  0  0  0  0  0  0  0
  -18.4642   42.9843  -20.6174 N   0  0  0  0  0  0  0  0  0  0  0  0
  -19.2360   42.1483  -21.3110 C   0  0  0  0  0  0  0  0  0  0  0  0
  -20.6157   41.9666  -21.4051 C   0  0  0  0  0  0  0  0  0  0  0  0
  -21.0723   40.9809  -22.2410 C   0  0  0  0  0  0  0  0  0  0  0  0
  -22.3272   40.8307  -22.3134 O   0  0  0  0  0  0  0  0  0  0  0  0
  -20.2285   40.1872  -22.9702 N   0  0  0  0  0  0  0  0  0  0  0  0
  -20.8584   39.1977  -23.7953 C   0  0  0  0  0  0  0  0  0  0  0  0
  -21.1837   39.7099  -25.1732 C   0  0  0  0  0  0  0  0  0  0  0  0
  -20.6163   40.8556  -25.6801 C   0  0  0  0  0  0  0  0  0  0  0  0
  -20.9004   41.3309  -26.9396 C   0  0  0  0  0  0  0  0  0  0  0  0
  -21.7908   40.6280  -27.7237 C   0  0  0  0  0  0  0  0  0  0  0  0
  -22.3252   39.4937  -27.1663 C   0  0  0  0  0  0  0  0  0  0  0  0
  -22.0488   39.0339  -25.9447 N   0  0  0  0  0  0  0  0  0  0  0  0
  1  2  1  0
  2  3  2  0
  3  4  1  0
  4  5  2  0
  4  6  1  0
  6  7  1  0
  7  8  2  0
  8  9  1  0
  9 10  2  0
 10 11  1  0
 11 12  2  0
 12 13  1  0
  6 14  1  0
 14 15  1  0
 15 16  2  0
 16 17  1  0
 17 18  2  0
 17 19  1  0
 19 20  1  0
 20 21  1  0
 21 22  2  0
 22 23  1  0
 23 24  2  0
 24 25  1  0
 25 26  2  0
 19  2  1  0
 26 21  1  0
 15  3  1  0
 12  7  1  0
M  END
$$$$
