
     RDKit          3D

 23 22  0  0  0  0  0  0  0  0999 V2000
  -18.1862   13.8865  -32.8240 C   0  0  0  0  0  0  0  0  0  0  0  0
  -18.9148   14.2935  -31.6252 N   0  0  0  0  0  0  0  0  0  0  0  0
  -19.8475   15.3511  -31.7535 C   0  0  0  0  0  0  0  0  0  0  0  0
  -19.9557   15.8707  -32.9225 O   0  0  0  0  0  0  0  0  0  0  0  0
  -20.6494   15.8354  -30.6178 C   0  0  1  0  0  0  0  0  0  0  0  0
  -20.4964   17.2177  -30.4269 N   0  0  0  0  0  0  0  0  0  0  0  0
  -19.3538   17.9961  -30.7737 C   0  0  0  0  0  0  0  0  0  0  0  0
  -18.4682   17.2860  -31.3766 O   0  0  0  0  0  0  0  0  0  0  0  0
  -19.1482   19.4113  -30.5058 C   0  0  2  0  0  0  0  0  0  0  0  0
  -17.7886   19.7654  -29.9484 C   0  0  0  0  0  0  0  0  0  0  0  0
  -16.6547   19.1712  -30.7378 C   0  0  0  0  0  0  0  0  0  0  0  0
  -15.3650   19.6098  -30.0713 C   0  0  0  0  0  0  0  0  0  0  0  0
  -16.6175   19.7635  -32.1483 C   0  0  0  0  0  0  0  0  0  0  0  0
  -20.2542   20.1913  -29.9077 C   0  0  2  0  0  0  0  0  0  0  0  0
  -20.1107   20.0696  -28.4973 O   0  0  0  0  0  0  0  0  0  0  0  0
  -21.6209   19.8236  -30.2279 C   0  0  0  0  0  0  0  0  0  0  0  0
  -22.1316   20.2014  -31.3046 O   0  0  0  0  0  0  0  0  0  0  0  0
  -22.4325   19.0417  -29.3713 N   0  0  0  0  0  0  0  0  0  0  0  0
  -23.7576   18.9723  -29.6304 O   0  0  0  0  0  0  0  0  0  0  0  0
  -22.0443   15.3153  -30.8127 C   0  0  0  0  0  0  0  0  0  0  0  0
  -22.1258   13.8189  -30.8915 C   0  0  0  0  0  0  0  0  0  0  0  0
  -23.0229   15.8938  -29.8127 C   0  0  0  0  0  0  0  0  0  0  0  0
  -22.4546   15.8577  -32.1706 C   0  0  0  0  0  0  0  0  0  0  0  0
  1  2  1  0
  2  3  1  0
  3  4  2  0
  3  5  1  0
  5  6  1  6
  6  7  1  0
  7  8  2  0
  7  9  1  0
  9 10  1  1
 10 11  1  0
 11 12  1  0
 11 13  1  0
  9 14  1  0
 14 15  1  1
 14 16  1  0
 16 17  2  0
 16 18  1  0
 18 19  1  0
  5 20  1  0
 20 21  1  0
 20 22  1  0
 20 23  1  0
M  END
$$$$
