
     RDKit          3D

 21 23  0  0  0  0  0  0  0  0999 V2000
  -15.1123   43.8068  -17.1387 C   0  0  0  0  0  0  0  0  0  0  0  0
  -14.9154   43.7317  -18.5329 O   0  0  0  0  0  0  0  0  0  0  0  0
  -15.7757   43.0355  -19.3769 C   0  0  0  0  0  0  0  0  0  0  0  0
  -16.9708   42.6229  -18.8476 C   0  0  0  0  0  0  0  0  0  0  0  0
  -17.8619   41.9313  -19.6314 C   0  0  0  0  0  0  0  0  0  0  0  0
  -17.5883   41.6375  -20.9442 C   0  0  0  0  0  0  0  0  0  0  0  0
  -18.5012   40.9071  -21.8140 C   0  0  0  0  0  0  0  0  0  0  0  0
  -18.4270   41.0290  -23.1704 C   0  0  0  0  0  0  0  0  0  0  0  0
  -19.3113   40.3188  -23.9507 C   0  0  0  0  0  0  0  0  0  0  0  0
  -19.2905   40.3915  -25.2088 O   0  0  0  0  0  0  0  0  0  0  0  0
  -20.2342   39.5141  -23.3182 C   0  0  0  0  0  0  0  0  0  0  0  0
  -21.1516   38.7729  -24.0271 C   0  0  0  0  0  0  0  0  0  0  0  0
  -22.0984   37.9509  -23.4556 C   0  0  0  0  0  0  0  0  0  0  0  0
  -23.0136   37.2128  -24.1928 O   0  0  0  0  0  0  0  0  0  0  0  0
  -22.5297   36.4970  -25.3125 C   0  0  0  0  0  0  0  0  0  0  0  0
  -22.1154   37.8759  -22.0710 C   0  0  0  0  0  0  0  0  0  0  0  0
  -21.2119   38.6039  -21.3270 C   0  0  0  0  0  0  0  0  0  0  0  0
  -20.2774   39.4172  -21.9337 C   0  0  0  0  0  0  0  0  0  0  0  0
  -19.4058   40.1215  -21.2642 O   0  0  0  0  0  0  0  0  0  0  0  0
  -16.3609   42.0735  -21.4504 C   0  0  0  0  0  0  0  0  0  0  0  0
  -15.4552   42.7675  -20.6810 C   0  0  0  0  0  0  0  0  0  0  0  0
  1  2  1  0
  2  3  1  0
  3  4  2  0
  4  5  1  0
  5  6  2  0
  6  7  1  0
  7  8  2  0
  8  9  1  0
  9 10  2  0
  9 11  1  0
 11 12  2  0
 12 13  1  0
 13 14  1  0
 14 15  1  0
 13 16  2  0
 16 17  1  0
 17 18  2  0
 18 19  1  0
  6 20  1  0
 20 21  2  0
 21  3  1  0
 19  7  1  0
 18 11  1  0
M  END
$$$$
