
     RDKit          3D

  7  6  0  0  0  0  0  0  0  0999 V2000
  -19.7275   37.9271  -22.3330 O   0  0  0  0  0  0  0  0  0  0  0  0
  -18.8594   37.6008  -21.5005 C   0  0  0  0  0  0  0  0  0  0  0  0
  -18.3999   38.5529  -20.6076 O   0  0  0  0  0  0  0  0  0  0  0  0
  -18.3465   36.1980  -21.4947 C   0  0  0  0  0  0  0  0  0  0  0  0
  -17.1079   36.1420  -20.2024 Cl  0  0  0  0  0  0  0  0  0  0  0  0
  -19.6385   35.0736  -21.1267 Cl  0  0  0  0  0  0  0  0  0  0  0  0
  -17.5512   35.8762  -23.0341 Cl  0  0  0  0  0  0  0  0  0  0  0  0
  1  2  2  0
  2  3  1  0
  2  4  1  0
  4  5  1  0
  4  6  1  0
  4  7  1  0
M  END
$$$$
