
     RDKit          3D

 23 22  0  0  0  0  0  0  0  0999 V2000
  -16.1406   17.9600  -37.6245 Cl  0  0  0  0  0  0  0  0  0  0  0  0
  -16.1404   17.9600  -37.6254 Cl  0  0  0  0  0  0  0  0  0  0  0  0
  -17.3499   20.1815  -38.6899 N   0  0  0  0  0  0  0  0  0  0  0  0
  -16.6468   19.5200  -37.6232 C   0  0  1  0  0  0  0  0  0  0  0  0
  -17.6181   18.5166  -37.0330 C   0  0  0  0  0  0  0  0  0  0  0  0
  -17.0465   17.7217  -35.8853 C   0  0  0  0  0  0  0  0  0  0  0  0
  -18.1078   16.8316  -35.4433 N   0  0  0  0  0  0  0  0  0  0  0  0
  -17.7229   16.0006  -34.3419 C   0  0  0  0  0  0  0  0  0  0  0  0
  -17.3385   16.8500  -33.1893 C   0  0  0  0  0  0  0  0  0  0  0  0
  -18.2408   17.2750  -32.2375 C   0  0  0  0  0  0  0  0  0  0  0  0
  -17.8250   18.0610  -31.1877 C   0  0  0  0  0  0  0  0  0  0  0  0
  -16.5096   18.4520  -31.0430 C   0  0  0  0  0  0  0  0  0  0  0  0
  -16.0140   19.4585  -29.6860 Cl  0  0  0  0  0  0  0  0  0  0  0  0
  -15.6134   18.0250  -31.9958 C   0  0  0  0  0  0  0  0  0  0  0  0
  -16.0228   17.2365  -33.0517 C   0  0  0  0  0  0  0  0  0  0  0  0
  -15.4495   18.8362  -38.1110 C   0  0  0  0  0  0  0  0  0  0  0  0
  -14.6358   18.3960  -37.2171 O   0  0  0  0  0  0  0  0  0  0  0  0
  -15.1623   18.6471  -39.4621 N   0  0  0  0  0  0  0  0  0  0  0  0
  -13.9276   17.9721  -39.8402 C   0  0  0  0  0  0  0  0  0  0  0  0
  -14.1202   16.8421  -40.7915 C   0  0  0  0  0  0  0  0  0  0  0  0
  -15.3105   17.0517  -41.6822 C   0  0  0  0  0  0  0  0  0  0  0  0
  -15.5069   18.5471  -41.8721 C   0  0  0  0  0  0  0  0  0  0  0  0
  -16.0229   19.0736  -40.5229 C   0  0  0  0  0  0  0  0  0  0  0  0
  4  3  1  6
  4  5  1  0
  5  6  1  0
  6  7  1  0
  7  8  1  0
  8  9  1  0
  9 10  2  0
 10 11  1  0
 11 12  2  0
 12 13  1  0
 12 14  1  0
 14 15  2  0
  4 16  1  0
 16 17  2  0
 16 18  1  0
 18 19  1  0
 19 20  1  0
 20 21  1  0
 21 22  1  0
 22 23  1  0
 15  9  1  0
 23 18  1  0
M  END
$$$$
