
     RDKit          3D

 34 37  0  0  0  0  0  0  0  0999 V2000
  -14.0436   44.2382  -18.6391 C   0  0  0  0  0  0  0  0  0  0  0  0
  -14.2729   45.0603  -19.8800 C   0  0  0  0  0  0  0  0  0  0  0  0
  -13.2028   46.1474  -19.9727 C   0  0  0  0  0  0  0  0  0  0  0  0
  -14.2527   44.2303  -20.9894 O   0  0  0  0  0  0  0  0  0  0  0  0
  -15.6092   45.7496  -19.7488 C   0  0  0  0  0  0  0  0  0  0  0  0
  -16.6662   44.9063  -20.4593 C   0  0  0  0  0  0  0  0  0  0  0  0
  -18.0100   45.5921  -20.3978 C   0  0  0  0  0  0  0  0  0  0  0  0
  -17.8105   46.7289  -21.2551 O   0  0  0  0  0  0  0  0  0  0  0  0
  -19.1351   44.8118  -21.0432 C   0  0  0  0  0  0  0  0  0  0  0  0
  -19.1883   45.0952  -22.4696 C   0  0  0  0  0  0  0  0  0  0  0  0
  -20.2865   45.5326  -20.4940 O   0  0  0  0  0  0  0  0  0  0  0  0
  -19.3131   43.4599  -20.4911 C   0  0  0  0  0  0  0  0  0  0  0  0
  -19.3715   43.3172  -18.9912 C   0  0  0  0  0  0  0  0  0  0  0  0
  -19.6177   41.8237  -18.8826 C   0  0  0  0  0  0  0  0  0  0  0  0
  -18.6676   41.2795  -19.9036 C   0  0  0  0  0  0  0  0  0  0  0  0
  -17.5506   40.8361  -19.1486 O   0  0  0  0  0  0  0  0  0  0  0  0
  -19.2002   40.0957  -20.5993 C   0  0  0  0  0  0  0  0  0  0  0  0
  -19.0543   38.9116  -19.9769 C   0  0  0  0  0  0  0  0  0  0  0  0
  -19.5345   37.6731  -20.5545 C   0  0  0  0  0  0  0  0  0  0  0  0
  -19.3031   36.5944  -19.9573 O   0  0  0  0  0  0  0  0  0  0  0  0
  -20.2913   37.7298  -21.8474 C   0  0  0  0  0  0  0  0  0  0  0  0
  -20.0687   36.4131  -22.5321 C   0  0  0  0  0  0  0  0  0  0  0  0
  -20.7049   36.4481  -23.8859 C   0  0  0  0  0  0  0  0  0  0  0  0
  -21.7003   35.4536  -23.9825 O   0  0  0  0  0  0  0  0  0  0  0  0
  -21.3613   37.7589  -24.1926 C   0  0  0  0  0  0  0  0  0  0  0  0
  -21.6932   37.7532  -25.5666 O   0  0  0  0  0  0  0  0  0  0  0  0
  -20.4732   38.9383  -23.9625 C   0  0  0  0  0  0  0  0  0  0  0  0
  -19.6916   38.8524  -22.6656 C   0  0  0  0  0  0  0  0  0  0  0  0
  -18.2657   38.5026  -22.9543 C   0  0  0  0  0  0  0  0  0  0  0  0
  -19.8741   40.1292  -21.8850 C   0  0  0  0  0  0  0  0  0  0  0  0
  -19.5617   41.3539  -22.6850 C   0  0  0  0  0  0  0  0  0  0  0  0
  -18.3103   42.0497  -22.2471 C   0  0  0  0  0  0  0  0  0  0  0  0
  -18.2842   42.4305  -20.8144 C   0  0  0  0  0  0  0  0  0  0  0  0
  -16.8615   42.7927  -20.4477 C   0  0  0  0  0  0  0  0  0  0  0  0
  1  2  1  0
  2  3  1  0
  2  4  1  0
  2  5  1  0
  5  6  1  0
  6  7  1  0
  7  8  1  0
  7  9  1  0
  9 10  1  0
  9 11  1  0
  9 12  1  0
 12 13  1  0
 13 14  1  0
 14 15  1  0
 15 16  1  0
 15 17  1  0
 17 18  2  0
 18 19  1  0
 19 20  2  0
 19 21  1  0
 21 22  1  0
 22 23  1  0
 23 24  1  0
 23 25  1  0
 25 26  1  0
 25 27  1  0
 27 28  1  0
 28 29  1  0
 28 30  1  0
 30 31  1  0
 31 32  1  0
 32 33  1  0
 33 34  1  0
 33 12  1  0
 33 15  1  0
 30 17  1  0
 28 21  1  0
M  END
$$$$
