
     RDKit          3D

 31 34  0  0  0  0  0  0  0  0999 V2000
  -15.6913   44.3367  -18.3834 C   0  0  0  0  0  0  0  0  0  0  0  0
  -16.2641   44.6721  -19.6835 N   0  0  0  0  0  0  0  0  0  0  0  0
  -16.1548   45.8929  -20.1833 N   0  0  0  0  0  0  0  0  0  0  0  0
  -16.7234   45.8691  -21.3545 N   0  0  0  0  0  0  0  0  0  0  0  0
  -17.1879   44.6852  -21.6164 N   0  0  0  0  0  0  0  0  0  0  0  0
  -16.9078   43.8903  -20.5564 C   0  0  0  0  0  0  0  0  0  0  0  0
  -17.3447   42.1876  -20.3462 S   0  0  0  0  0  0  0  0  0  0  0  0
  -17.3175   41.2395  -21.8838 C   0  0  0  0  0  0  0  0  0  0  0  0
  -18.5228   40.5351  -22.2433 C   0  0  0  0  0  0  0  0  0  0  0  0
  -18.8196   39.3378  -21.8004 C   0  0  0  0  0  0  0  0  0  0  0  0
  -17.9952   38.5682  -20.8945 C   0  0  0  0  0  0  0  0  0  0  0  0
  -16.9735   37.9775  -21.2826 O   0  0  0  0  0  0  0  0  0  0  0  0
  -18.2574   38.4171  -19.5267 O   0  0  0  0  0  0  0  0  0  0  0  0
  -20.0420   38.6816  -22.2210 N   0  0  0  0  0  0  0  0  0  0  0  0
  -21.2639   37.9846  -21.9960 C   0  0  0  0  0  0  0  0  0  0  0  0
  -21.6267   37.2555  -21.0405 O   0  0  0  0  0  0  0  0  0  0  0  0
  -21.8198   38.4839  -23.2830 C   0  0  0  0  0  0  0  0  0  0  0  0
  -22.5836   37.5547  -24.0590 N   0  0  0  0  0  0  0  0  0  0  0  0
  -24.0183   37.5215  -24.0389 C   0  0  0  0  0  0  0  0  0  0  0  0
  -24.5188   36.8699  -23.0944 O   0  0  0  0  0  0  0  0  0  0  0  0
  -24.8641   38.1787  -25.0213 C   0  0  0  0  0  0  0  0  0  0  0  0
  -26.0406   37.4051  -25.1778 O   0  0  0  0  0  0  0  0  0  0  0  0
  -25.2419   39.5823  -24.6853 C   0  0  0  0  0  0  0  0  0  0  0  0
  -24.4108   40.6595  -24.8512 C   0  0  0  0  0  0  0  0  0  0  0  0
  -24.8562   41.9174  -24.5189 C   0  0  0  0  0  0  0  0  0  0  0  0
  -26.1139   42.1661  -24.0185 C   0  0  0  0  0  0  0  0  0  0  0  0
  -26.9339   41.0718  -23.8586 C   0  0  0  0  0  0  0  0  0  0  0  0
  -26.5084   39.8079  -24.1842 C   0  0  0  0  0  0  0  0  0  0  0  0
  -20.3527   38.6042  -23.6342 C   0  0  0  0  0  0  0  0  0  0  0  0
  -20.0172   40.1496  -24.4941 S   0  0  0  0  0  0  0  0  0  0  0  0
  -19.4242   41.2731  -23.1945 C   0  0  0  0  0  0  0  0  0  0  0  0
  1  2  1  0
  2  3  1  0
  3  4  2  0
  4  5  1  0
  5  6  2  0
  6  7  1  0
  7  8  1  0
  8  9  1  0
  9 10  2  0
 10 11  1  0
 11 12  2  0
 11 13  1  0
 10 14  1  0
 14 15  1  0
 15 16  2  0
 15 17  1  0
 17 18  1  0
 18 19  1  0
 19 20  2  0
 19 21  1  0
 21 22  1  0
 21 23  1  0
 23 24  2  0
 24 25  1  0
 25 26  2  0
 26 27  1  0
 27 28  2  0
 17 29  1  0
 29 30  1  0
 30 31  1  0
  6  2  1  0
 31  9  1  0
 29 14  1  0
 28 23  1  0
M  END
$$$$
