
     RDKit          3D

 39 43  0  0  0  0  0  0  0  0999 V2000
  -17.5873   19.7280  -43.2976 C   0  0  0  0  0  0  0  0  0  0  0  0
  -18.3191   20.6475  -42.3526 C   0  0  0  0  0  0  0  0  0  0  0  0
  -19.6400   20.6443  -42.1285 N   0  0  0  0  0  0  0  0  0  0  0  0
  -19.9388   21.6175  -41.2106 C   0  0  0  0  0  0  0  0  0  0  0  0
  -18.7066   22.1733  -40.9278 C   0  0  0  0  0  0  0  0  0  0  0  0
  -17.7190   21.5966  -41.6110 N   0  0  0  0  0  0  0  0  0  0  0  0
  -18.4837   23.2777  -39.9922 C   0  0  0  0  0  0  0  0  0  0  0  0
  -17.1697   23.5997  -39.8189 C   0  0  0  0  0  0  0  0  0  0  0  0
  -16.8549   24.6490  -38.9717 C   0  0  0  0  0  0  0  0  0  0  0  0
  -17.8030   25.3735  -38.3048 C   0  0  0  0  0  0  0  0  0  0  0  0
  -19.1269   25.0707  -38.4616 C   0  0  0  0  0  0  0  0  0  0  0  0
  -19.4596   24.0200  -39.3061 C   0  0  0  0  0  0  0  0  0  0  0  0
  -20.8653   23.8113  -39.3434 N   0  0  0  0  0  0  0  0  0  0  0  0
  -21.5777   23.9868  -38.1320 C   0  0  0  0  0  0  0  0  0  0  0  0
  -20.9813   24.1452  -37.0537 O   0  0  0  0  0  0  0  0  0  0  0  0
  -23.0393   23.9924  -38.0786 C   0  0  0  0  0  0  0  0  0  0  0  0
  -23.8527   24.8453  -38.7509 C   0  0  0  0  0  0  0  0  0  0  0  0
  -25.2243   24.7367  -38.5977 C   0  0  0  0  0  0  0  0  0  0  0  0
  -25.8005   23.7939  -37.7869 C   0  0  0  0  0  0  0  0  0  0  0  0
  -27.2074   23.7352  -37.6708 N   0  0  0  0  0  0  0  0  0  0  0  0
  -27.9065   24.5018  -36.6585 C   0  0  0  0  0  0  0  0  0  0  0  0
  -27.1520   25.1840  -35.9371 O   0  0  0  0  0  0  0  0  0  0  0  0
  -29.3507   24.4510  -36.5302 C   0  0  0  0  0  0  0  0  0  0  0  0
  -30.1367   23.9658  -37.5848 C   0  0  0  0  0  0  0  0  0  0  0  0
  -31.4968   23.8677  -37.4720 C   0  0  0  0  0  0  0  0  0  0  0  0
  -32.1616   24.2386  -36.3232 C   0  0  0  0  0  0  0  0  0  0  0  0
  -31.3911   24.7126  -35.2976 C   0  0  0  0  0  0  0  0  0  0  0  0
  -29.9877   24.8251  -35.3867 C   0  0  0  0  0  0  0  0  0  0  0  0
  -29.2702   25.3952  -34.2564 C   0  0  0  0  0  0  0  0  0  0  0  0
  -29.2139   24.6945  -33.0794 C   0  0  0  0  0  0  0  0  0  0  0  0
  -28.5914   25.1825  -31.9332 C   0  0  0  0  0  0  0  0  0  0  0  0
  -28.0164   26.4328  -32.0273 C   0  0  0  0  0  0  0  0  0  0  0  0
  -28.0715   27.1388  -33.2074 C   0  0  0  0  0  0  0  0  0  0  0  0
  -28.6999   26.6297  -34.3395 C   0  0  0  0  0  0  0  0  0  0  0  0
  -24.9941   22.9226  -37.0994 C   0  0  0  0  0  0  0  0  0  0  0  0
  -23.6038   23.0272  -37.2501 C   0  0  0  0  0  0  0  0  0  0  0  0
  -21.6025   23.3701  -40.5355 C   0  0  0  0  0  0  0  0  0  0  0  0
  -21.3196   21.8826  -40.7324 C   0  0  0  0  0  0  0  0  0  0  0  0
  -23.3747   23.6168  -38.2822 Cl  0  0  0  0  0  0  0  0  0  0  0  0
  1  2  1  0
  2  3  2  0
  3  4  1  0
  4  5  2  0
  5  6  1  0
  5  7  1  0
  7  8  2  0
  8  9  1  0
  9 10  2  0
 10 11  1  0
 11 12  2  0
 12 13  1  0
 13 14  1  0
 14 15  2  0
 14 16  1  0
 16 17  2  0
 17 18  1  0
 18 19  2  0
 19 20  1  0
 20 21  1  0
 21 22  2  0
 21 23  1  0
 23 24  2  0
 24 25  1  0
 25 26  2  0
 26 27  1  0
 27 28  2  0
 28 29  1  0
 29 30  2  0
 30 31  1  0
 31 32  2  0
 32 33  1  0
 33 34  2  0
 19 35  1  0
 35 36  2  0
 13 37  1  0
 37 38  1  0
  6  2  1  0
 12  7  1  0
 36 16  1  0
 38  4  1  0
 28 23  1  0
 34 29  1  0
M  END
$$$$
