
     RDKit          3D

 38 40  0  0  0  0  0  0  0  0999 V2000
  -17.9441   36.7177  -20.9111 C   0  0  0  0  0  0  0  0  0  0  0  0
  -18.0268   38.1986  -21.3000 C   0  0  0  0  0  0  0  0  0  0  0  0
  -16.6847   38.7721  -21.5549 C   0  0  0  0  0  0  0  0  0  0  0  0
  -16.7090   40.2140  -21.8644 C   0  0  0  0  0  0  0  0  0  0  0  0
  -17.4184   41.0755  -20.9734 N   0  0  0  0  0  0  0  0  0  0  0  0
  -16.7007   41.5201  -19.7512 C   0  0  0  0  0  0  0  0  0  0  0  0
  -16.0277   42.8412  -19.9962 C   0  0  0  0  0  0  0  0  0  0  0  0
  -15.1937   43.1822  -18.7664 C   0  0  0  0  0  0  0  0  0  0  0  0
  -14.4748   44.5062  -18.9635 C   0  0  0  0  0  0  0  0  0  0  0  0
  -18.7341   41.5197  -21.1833 C   0  0  0  0  0  0  0  0  0  0  0  0
  -19.4093   40.8870  -22.0729 O   0  0  0  0  0  0  0  0  0  0  0  0
  -19.4060   42.6089  -20.5179 C   0  0  0  0  0  0  0  0  0  0  0  0
  -20.6804   43.0098  -21.0252 N   0  0  0  0  0  0  0  0  0  0  0  0
  -21.4779   43.7344  -20.0714 C   0  0  0  0  0  0  0  0  0  0  0  0
  -22.1256   42.6106  -19.3120 C   0  0  1  0  0  0  0  0  0  0  0  0
  -23.2826   43.0282  -18.5060 C   0  0  0  0  0  0  0  0  0  0  0  0
  -23.1423   44.0010  -17.5410 C   0  0  0  0  0  0  0  0  0  0  0  0
  -24.1819   44.4370  -16.7562 C   0  0  0  0  0  0  0  0  0  0  0  0
  -24.0125   45.4190  -15.7907 O   0  0  0  0  0  0  0  0  0  0  0  0
  -22.6940   45.8206  -15.4777 C   0  0  0  0  0  0  0  0  0  0  0  0
  -25.4195   43.8472  -16.9730 C   0  0  0  0  0  0  0  0  0  0  0  0
  -25.6107   42.8820  -17.9138 C   0  0  0  0  0  0  0  0  0  0  0  0
  -24.5366   42.4731  -18.6814 C   0  0  0  0  0  0  0  0  0  0  0  0
  -26.9586   42.5229  -17.8562 O   0  0  0  0  0  0  0  0  0  0  0  0
  -27.5212   43.0845  -16.6820 C   0  0  0  0  0  0  0  0  0  0  0  0
  -26.6112   44.1149  -16.3146 O   0  0  0  0  0  0  0  0  0  0  0  0
  -22.5669   41.7182  -20.4866 C   0  0  2  0  0  0  0  0  0  0  0  0
  -22.5376   40.3344  -19.9639 C   0  0  0  0  0  0  0  0  0  0  0  0
  -22.1493   40.0683  -18.7985 O   0  0  0  0  0  0  0  0  0  0  0  0
  -22.9353   39.2430  -20.7232 O   0  0  0  0  0  0  0  0  0  0  0  0
  -21.5132   41.9609  -21.5702 C   0  0  1  0  0  0  0  0  0  0  0  0
  -22.0788   42.5376  -22.8229 C   0  0  0  0  0  0  0  0  0  0  0  0
  -21.3565   43.6423  -23.4893 C   0  0  0  0  0  0  0  0  0  0  0  0
  -21.9468   45.0090  -23.1965 C   0  0  0  0  0  0  0  0  0  0  0  0
  -19.8657   43.6653  -23.3108 C   0  0  0  0  0  0  0  0  0  0  0  0
  -21.6231   43.4203  -24.9874 C   0  0  0  0  0  0  0  0  0  0  0  0
  -22.1097   42.0681  -25.3350 C   0  0  0  0  0  0  0  0  0  0  0  0
  -22.2954   42.0792  -26.8707 C   0  0  0  0  0  0  0  0  0  0  0  0
  1  2  1  0
  2  3  1  0
  3  4  1  0
  4  5  1  0
  5  6  1  0
  6  7  1  0
  7  8  1  0
  8  9  1  0
  5 10  1  0
 10 11  2  0
 10 12  1  0
 12 13  1  0
 13 14  1  0
 14 15  1  0
 15 16  1  6
 16 17  2  0
 17 18  1  0
 18 19  1  0
 19 20  1  0
 18 21  2  0
 21 22  1  0
 22 23  2  0
 22 24  1  0
 24 25  1  0
 25 26  1  0
 15 27  1  0
 27 28  1  1
 28 29  2  0
 28 30  1  0
 27 31  1  0
 31 32  1  6
 32 33  1  0
 33 34  1  0
 33 35  1  0
 33 36  1  0
 36 37  1  0
 37 38  1  0
 31 13  1  0
 23 16  1  0
 26 21  1  0
M  END
$$$$
