
     RDKit          3D

 30 30  0  0  0  0  0  0  0  0999 V2000
   -9.1744   20.0646  -40.9007 C   0  0  0  0  0  0  0  0  0  0  0  0
  -10.5694   19.5617  -41.1863 C   0  0  0  0  0  0  0  0  0  0  0  0
  -10.7575   19.2271  -42.6620 C   0  0  0  0  0  0  0  0  0  0  0  0
  -12.1522   18.7207  -42.9025 C   0  0  0  0  0  0  0  0  0  0  0  0
  -12.4119   18.3252  -44.3440 C   0  0  0  0  0  0  0  0  0  0  0  0
  -13.7411   17.8561  -44.5575 N   0  0  0  0  0  0  0  0  0  0  0  0
  -13.8464   16.3688  -44.6354 C   0  0  0  0  0  0  0  0  0  0  0  0
  -12.7213   15.8779  -45.4776 C   0  0  0  0  0  0  0  0  0  0  0  0
  -12.8694   14.4545  -45.9164 C   0  0  0  0  0  0  0  0  0  0  0  0
  -11.8660   14.0293  -46.7596 O   0  0  0  0  0  0  0  0  0  0  0  0
  -11.2151   12.9466  -46.1682 C   0  0  0  0  0  0  0  0  0  0  0  0
  -14.9304   18.5700  -44.7024 C   0  0  0  0  0  0  0  0  0  0  0  0
  -15.7603   18.0880  -45.5851 O   0  0  0  0  0  0  0  0  0  0  0  0
  -15.3332   19.7826  -43.9762 C   0  0  0  0  0  0  0  0  0  0  0  0
  -15.3489   20.9481  -44.9576 C   0  0  0  0  0  0  0  0  0  0  0  0
  -16.2028   22.0960  -44.5347 C   0  0  0  0  0  0  0  0  0  0  0  0
  -16.0069   22.5651  -43.1597 C   0  0  0  0  0  0  0  0  0  0  0  0
  -16.9830   22.4931  -42.3710 O   0  0  0  0  0  0  0  0  0  0  0  0
  -14.8207   23.0806  -42.6794 O   0  0  0  0  0  0  0  0  0  0  0  0
  -16.6367   19.6136  -43.3638 N   0  0  0  0  0  0  0  0  0  0  0  0
  -16.9530   19.4427  -42.0190 C   0  0  0  0  0  0  0  0  0  0  0  0
  -17.9571   20.0454  -41.5414 O   0  0  0  0  0  0  0  0  0  0  0  0
  -16.1559   18.5791  -41.1210 C   0  0  0  0  0  0  0  0  0  0  0  0
  -16.5624   18.4755  -39.7939 C   0  0  0  0  0  0  0  0  0  0  0  0
  -15.8838   17.6957  -38.8780 C   0  0  0  0  0  0  0  0  0  0  0  0
  -14.7671   16.9897  -39.2686 C   0  0  0  0  0  0  0  0  0  0  0  0
  -13.9117   16.0033  -38.1022 Cl  0  0  0  0  0  0  0  0  0  0  0  0
  -14.3706   17.0962  -40.5813 C   0  0  0  0  0  0  0  0  0  0  0  0
  -12.9448   16.2030  -41.1045 Cl  0  0  0  0  0  0  0  0  0  0  0  0
  -15.0519   17.8822  -41.5110 C   0  0  0  0  0  0  0  0  0  0  0  0
  1  2  1  0
  2  3  1  0
  3  4  1  0
  4  5  1  0
  5  6  1  0
  6  7  1  0
  7  8  1  0
  8  9  1  0
  9 10  1  0
 10 11  1  0
  6 12  1  0
 12 13  2  0
 12 14  1  0
 14 15  1  0
 15 16  1  0
 16 17  1  0
 17 18  2  0
 17 19  1  0
 14 20  1  0
 20 21  1  0
 21 22  2  0
 21 23  1  0
 23 24  2  0
 24 25  1  0
 25 26  2  0
 26 27  1  0
 26 28  1  0
 28 29  1  0
 28 30  2  0
 30 23  1  0
M  END
$$$$
