
     RDKit          3D

 23 25  0  0  0  0  0  0  0  0999 V2000
  -24.9231   20.8494  -37.3917 C   0  0  0  0  0  0  0  0  0  0  0  0
  -24.0131   21.7009  -38.1811 C   0  0  2  0  0  0  0  0  0  0  0  0
  -22.5959   21.5112  -37.7353 C   0  0  0  0  0  0  0  0  0  0  0  0
  -21.6771   21.8534  -38.8620 C   0  0  0  0  0  0  0  0  0  0  0  0
  -22.2194   22.8652  -39.7173 N   0  0  0  0  0  0  0  0  0  0  0  0
  -21.4007   23.2505  -40.8115 C   0  0  0  0  0  0  0  0  0  0  0  0
  -20.3388   22.6246  -41.0474 O   0  0  0  0  0  0  0  0  0  0  0  0
  -21.7562   24.3940  -41.7188 C   0  0  0  0  0  0  0  0  0  0  0  0
  -20.5996   25.3295  -41.6858 C   0  0  0  0  0  0  0  0  0  0  0  0
  -19.6651   26.0641  -41.6525 N   0  0  0  0  0  0  0  0  0  0  0  0
  -23.5028   23.5383  -39.6035 C   0  0  0  0  0  0  0  0  0  0  0  0
  -24.3220   23.1223  -38.4051 C   0  0  2  0  0  0  0  0  0  0  0  0
  -24.2069   24.0456  -37.3332 N   0  0  0  0  0  0  0  0  0  0  0  0
  -22.9373   24.2536  -36.6456 C   0  0  0  0  0  0  0  0  0  0  0  0
  -25.3109   24.8258  -36.9195 C   0  0  0  0  0  0  0  0  0  0  0  0
  -25.2093   25.7134  -35.8847 N   0  0  0  0  0  0  0  0  0  0  0  0
  -26.2165   26.4448  -35.4300 C   0  0  0  0  0  0  0  0  0  0  0  0
  -27.4301   26.3402  -35.9900 N   0  0  0  0  0  0  0  0  0  0  0  0
  -27.6320   25.4988  -37.0102 C   0  0  0  0  0  0  0  0  0  0  0  0
  -28.7526   25.2455  -37.7091 N   0  0  0  0  0  0  0  0  0  0  0  0
  -28.4311   24.3193  -38.6417 C   0  0  0  0  0  0  0  0  0  0  0  0
  -27.0833   24.0017  -38.5055 C   0  0  0  0  0  0  0  0  0  0  0  0
  -26.5706   24.7488  -37.4674 C   0  0  0  0  0  0  0  0  0  0  0  0
  2  1  1  1
  2  3  1  0
  3  4  1  0
  4  5  1  0
  5  6  1  0
  6  7  2  0
  6  8  1  0
  8  9  1  0
  9 10  3  0
  5 11  1  0
 11 12  1  0
 12 13  1  1
 13 14  1  0
 13 15  1  0
 15 16  2  0
 16 17  1  0
 17 18  2  0
 18 19  1  0
 19 20  1  0
 20 21  1  0
 21 22  2  0
 22 23  1  0
 12  2  1  0
 23 15  1  0
 23 19  2  0
M  END
$$$$
