
     RDKit          3D

 34 37  0  0  0  0  0  0  0  0999 V2000
  -16.9819   44.8330  -19.7892 C   0  0  0  0  0  0  0  0  0  0  0  0
  -17.7131   45.8669  -20.5548 C   0  0  0  0  0  0  0  0  0  0  0  0
  -17.3452   47.1880  -20.3586 C   0  0  0  0  0  0  0  0  0  0  0  0
  -17.9537   48.2250  -21.0236 C   0  0  0  0  0  0  0  0  0  0  0  0
  -18.9530   47.8847  -21.9003 C   0  0  0  0  0  0  0  0  0  0  0  0
  -19.3141   46.5750  -22.0917 C   0  0  0  0  0  0  0  0  0  0  0  0
  -18.7062   45.4946  -21.4214 C   0  0  0  0  0  0  0  0  0  0  0  0
  -19.1532   44.1142  -21.7115 C   0  0  0  0  0  0  0  0  0  0  0  0
  -19.3053   43.7411  -23.1206 C   0  0  0  0  0  0  0  0  0  0  0  0
  -18.5242   44.1680  -23.9919 O   0  0  0  0  0  0  0  0  0  0  0  0
  -20.3419   42.8619  -23.6017 N   0  0  0  0  0  0  0  0  0  0  0  0
  -20.5223   42.5860  -25.0081 C   0  0  0  0  0  0  0  0  0  0  0  0
  -21.7528   41.7176  -25.2491 C   0  0  0  0  0  0  0  0  0  0  0  0
  -21.7235   41.0800  -26.6040 C   0  0  0  0  0  0  0  0  0  0  0  0
  -20.7209   41.7445  -27.5297 C   0  0  0  0  0  0  0  0  0  0  0  0
  -19.3243   41.7090  -26.9781 C   0  0  0  0  0  0  0  0  0  0  0  0
  -19.3296   41.7477  -25.4690 C   0  0  0  0  0  0  0  0  0  0  0  0
  -18.1374   43.1743  -21.1007 N   0  0  0  0  0  0  0  0  0  0  0  0
  -18.3221   41.8037  -21.1230 C   0  0  0  0  0  0  0  0  0  0  0  0
  -19.4386   41.4062  -21.6773 O   0  0  0  0  0  0  0  0  0  0  0  0
  -17.5156   40.6864  -20.6483 C   0  0  0  0  0  0  0  0  0  0  0  0
  -18.1300   39.4366  -20.3766 N   0  0  0  0  0  0  0  0  0  0  0  0
  -18.1967   38.3430  -21.1968 C   0  0  0  0  0  0  0  0  0  0  0  0
  -18.8907   37.3306  -20.6113 C   0  0  0  0  0  0  0  0  0  0  0  0
  -19.2603   37.8015  -19.4111 N   0  0  0  0  0  0  0  0  0  0  0  0
  -18.8115   39.0532  -19.2645 C   0  0  0  0  0  0  0  0  0  0  0  0
  -19.0320   39.8828  -18.0655 C   0  0  0  0  0  0  0  0  0  0  0  0
  -17.0471   43.8320  -20.4901 C   0  0  0  0  0  0  0  0  0  0  0  0
  -17.0444   44.2933  -19.1985 C   0  0  0  0  0  0  0  0  0  0  0  0
  -15.9192   44.9098  -18.6431 C   0  0  0  0  0  0  0  0  0  0  0  0
  -14.7764   45.0743  -19.3746 C   0  0  0  0  0  0  0  0  0  0  0  0
  -14.7871   44.6081  -20.6717 C   0  0  0  0  0  0  0  0  0  0  0  0
  -13.6625   44.7614  -21.4156 F   0  0  0  0  0  0  0  0  0  0  0  0
  -15.8733   44.0044  -21.2318 C   0  0  0  0  0  0  0  0  0  0  0  0
  1  2  1  0
  2  3  2  0
  3  4  1  0
  4  5  2  0
  5  6  1  0
  6  7  2  0
  7  8  1  0
  8  9  1  0
  9 10  2  0
  9 11  1  0
 11 12  1  0
 12 13  1  0
 13 14  1  0
 14 15  1  0
 15 16  1  0
 16 17  1  0
  8 18  1  0
 18 19  1  0
 19 20  2  0
 19 21  1  0
 21 22  1  0
 22 23  1  0
 23 24  2  0
 24 25  1  0
 25 26  2  0
 26 27  1  0
 18 28  1  0
 28 29  2  0
 29 30  1  0
 30 31  2  0
 31 32  1  0
 32 33  1  0
 32 34  2  0
  7  2  1  0
 17 12  1  0
 26 22  1  0
 34 28  1  0
M  END
$$$$
