
     RDKit          3D

 26 28  0  0  0  0  0  0  0  0999 V2000
  -27.4587   22.1953  -32.9400 C   0  0  0  0  0  0  0  0  0  0  0  0
  -26.0892   22.7321  -33.1314 C   0  0  0  0  0  0  0  0  0  0  0  0
  -25.6749   23.7764  -33.9489 C   0  0  0  0  0  0  0  0  0  0  0  0
  -24.3130   23.9460  -33.8253 C   0  0  0  0  0  0  0  0  0  0  0  0
  -23.4811   24.8741  -34.4601 N   0  0  0  0  0  0  0  0  0  0  0  0
  -23.9821   26.0235  -35.1631 C   0  0  0  0  0  0  0  0  0  0  0  0
  -25.2951   26.2604  -35.2351 N   0  0  0  0  0  0  0  0  0  0  0  0
  -25.8552   27.3087  -35.8691 C   0  0  0  0  0  0  0  0  0  0  0  0
  -27.2732   27.4625  -35.8886 N   0  0  0  0  0  0  0  0  0  0  0  0
  -28.1476   26.5593  -35.1661 C   0  0  1  0  0  0  0  0  0  0  0  0
  -29.2170   27.3614  -34.5158 C   0  0  0  0  0  0  0  0  0  0  0  0
  -28.6260   25.4868  -36.0526 C   0  0  0  0  0  0  0  0  0  0  0  0
  -28.9826   25.7813  -37.3664 C   0  0  0  0  0  0  0  0  0  0  0  0
  -29.4317   24.8047  -38.2294 C   0  0  0  0  0  0  0  0  0  0  0  0
  -29.5478   23.4910  -37.8292 C   0  0  0  0  0  0  0  0  0  0  0  0
  -29.9903   22.5157  -38.6737 F   0  0  0  0  0  0  0  0  0  0  0  0
  -29.1974   23.1892  -36.5311 C   0  0  0  0  0  0  0  0  0  0  0  0
  -28.7416   24.1752  -35.6523 C   0  0  0  0  0  0  0  0  0  0  0  0
  -25.0141   28.2081  -36.4925 C   0  0  0  0  0  0  0  0  0  0  0  0
  -25.5653   29.3400  -37.1794 C   0  0  0  0  0  0  0  0  0  0  0  0
  -26.0190   30.2566  -37.7161 N   0  0  0  0  0  0  0  0  0  0  0  0
  -23.6471   28.0140  -36.4510 C   0  0  0  0  0  0  0  0  0  0  0  0
  -23.1338   26.9141  -35.7813 C   0  0  0  0  0  0  0  0  0  0  0  0
  -21.8079   26.6725  -35.7075 F   0  0  0  0  0  0  0  0  0  0  0  0
  -23.9090   23.0157  -32.9439 N   0  0  0  0  0  0  0  0  0  0  0  0
  -24.9637   22.2977  -32.5342 N   0  0  0  0  0  0  0  0  0  0  0  0
  1  2  1  0
  2  3  2  0
  3  4  1  0
  4  5  1  0
  5  6  1  0
  6  7  2  0
  7  8  1  0
  8  9  1  0
  9 10  1  0
 10 11  1  6
 10 12  1  0
 12 13  2  0
 13 14  1  0
 14 15  2  0
 15 16  1  0
 15 17  1  0
 17 18  2  0
  8 19  2  0
 19 20  1  0
 20 21  3  0
 19 22  1  0
 22 23  2  0
 23 24  1  0
  4 25  2  0
 25 26  1  0
 26  2  1  0
 23  6  1  0
 18 12  1  0
M  END
$$$$
