
     RDKit          3D

 25 26  0  0  0  0  0  0  0  0999 V2000
  -13.3703   47.1986  -12.8636 C   0  0  0  0  0  0  0  0  0  0  0  0
  -12.6552   47.2948  -14.0533 O   0  0  0  0  0  0  0  0  0  0  0  0
  -12.8357   46.4489  -15.1484 C   0  0  0  0  0  0  0  0  0  0  0  0
  -12.4530   46.8619  -16.4074 C   0  0  0  0  0  0  0  0  0  0  0  0
  -12.6111   46.0607  -17.5203 C   0  0  0  0  0  0  0  0  0  0  0  0
  -13.1717   44.7810  -17.4246 C   0  0  0  0  0  0  0  0  0  0  0  0
  -13.3516   43.9379  -18.6216 C   0  0  0  0  0  0  0  0  0  0  0  0
  -14.8109   43.8397  -19.0844 C   0  0  0  0  0  0  0  0  0  0  0  0
  -15.4871   45.1524  -19.0460 C   0  0  0  0  0  0  0  0  0  0  0  0
  -14.7605   43.2113  -20.3404 N   0  0  0  0  0  0  0  0  0  0  0  0
  -15.5822   42.1613  -20.7313 C   0  0  0  0  0  0  0  0  0  0  0  0
  -17.0154   42.5152  -20.8778 C   0  0  0  0  0  0  0  0  0  0  0  0
  -17.3501   42.6669  -22.2559 O   0  0  0  0  0  0  0  0  0  0  0  0
  -17.9201   41.3869  -20.4061 C   0  0  0  0  0  0  0  0  0  0  0  0
  -18.7088   41.5228  -19.3133 C   0  0  0  0  0  0  0  0  0  0  0  0
  -19.5249   40.4382  -18.9338 C   0  0  0  0  0  0  0  0  0  0  0  0
  -19.5263   39.2690  -19.6476 C   0  0  0  0  0  0  0  0  0  0  0  0
  -20.3255   38.1951  -19.2836 O   0  0  0  0  0  0  0  0  0  0  0  0
  -18.7152   39.1460  -20.7606 C   0  0  0  0  0  0  0  0  0  0  0  0
  -18.7205   37.9335  -21.4842 N   0  0  0  0  0  0  0  0  0  0  0  0
  -17.6665   37.6406  -22.3842 C   0  0  0  0  0  0  0  0  0  0  0  0
  -17.6416   36.5559  -23.0389 O   0  0  0  0  0  0  0  0  0  0  0  0
  -17.9259   40.2056  -21.1219 C   0  0  0  0  0  0  0  0  0  0  0  0
  -13.5516   44.3743  -16.1712 C   0  0  0  0  0  0  0  0  0  0  0  0
  -13.3895   45.1900  -15.0421 C   0  0  0  0  0  0  0  0  0  0  0  0
  1  2  1  0
  2  3  1  0
  3  4  2  0
  4  5  1  0
  5  6  2  0
  6  7  1  0
  7  8  1  0
  8  9  1  0
  8 10  1  0
 10 11  1  0
 11 12  1  0
 12 13  1  0
 12 14  1  0
 14 15  2  0
 15 16  1  0
 16 17  2  0
 17 18  1  0
 17 19  1  0
 19 20  1  0
 20 21  1  0
 21 22  2  0
 19 23  2  0
  6 24  1  0
 24 25  2  0
 25  3  1  0
 23 14  1  0
M  END
$$$$
