
     RDKit          3D

 17 18  0  0  0  0  0  0  0  0999 V2000
  -19.9698   42.9348  -26.2987 N   0  0  0  0  0  0  0  0  0  0  0  0
  -19.9884   41.9825  -25.6110 C   0  0  0  0  0  0  0  0  0  0  0  0
  -20.0265   40.8309  -24.7549 C   0  0  0  0  0  0  0  0  0  0  0  0
  -18.9088   40.4765  -23.9934 C   0  0  0  0  0  0  0  0  0  0  0  0
  -18.9354   39.3712  -23.1684 C   0  0  0  0  0  0  0  0  0  0  0  0
  -17.8505   39.0199  -22.4210 N   0  0  0  0  0  0  0  0  0  0  0  0
  -17.8608   37.9425  -21.6090 C   0  0  0  0  0  0  0  0  0  0  0  0
  -16.8557   37.6120  -20.9135 O   0  0  0  0  0  0  0  0  0  0  0  0
  -19.0206   37.1979  -21.5582 C   0  0  0  0  0  0  0  0  0  0  0  0
  -19.0166   36.1866  -20.7895 O   0  0  0  0  0  0  0  0  0  0  0  0
  -20.0950   37.5440  -22.2964 N   0  0  0  0  0  0  0  0  0  0  0  0
  -20.0904   38.6179  -23.1085 C   0  0  0  0  0  0  0  0  0  0  0  0
  -21.1847   38.9764  -23.8634 C   0  0  0  0  0  0  0  0  0  0  0  0
  -21.1909   40.0728  -24.6958 C   0  0  0  0  0  0  0  0  0  0  0  0
  -22.3202   40.4446  -25.4765 N   0  0  0  0  0  4  0  0  0  0  0  0
  -22.3535   40.3579  -26.7174 O   0  0  0  0  0  0  0  0  0  0  0  0
  -23.4588   40.9311  -24.8691 O   0  0  0  0  0  1  0  0  0  0  0  0
  1  2  3  0
  2  3  1  0
  3  4  2  0
  4  5  1  0
  5  6  1  0
  6  7  1  0
  7  8  2  0
  7  9  1  0
  9 10  2  0
  9 11  1  0
 11 12  1  0
 12 13  1  0
 13 14  2  0
 14 15  1  0
 15 16  2  0
 15 17  1  0
 14  3  1  0
 12  5  2  0
M  CHG  2  15   1  17  -1
M  END
$$$$
