
     RDKit          3D

 38 41  0  0  0  0  0  0  0  0999 V2000
  -14.4964   18.2701  -35.6356 C   0  0  0  0  0  0  0  0  0  0  0  0
  -14.3325   17.6031  -37.0272 C   0  0  0  0  0  0  0  0  0  0  0  0
  -14.2647   16.1206  -36.7284 C   0  0  0  0  0  0  0  0  0  0  0  0
  -12.9375   18.0038  -37.4543 C   0  0  0  0  0  0  0  0  0  0  0  0
  -15.4041   18.0087  -37.9210 C   0  0  0  0  0  0  0  0  0  0  0  0
  -15.2831   19.1168  -38.4829 O   0  0  0  0  0  0  0  0  0  0  0  0
  -16.6315   17.2929  -38.2645 C   0  0  0  0  0  0  0  0  0  0  0  0
  -17.8423   17.6405  -37.6246 N   0  0  0  0  0  0  0  0  0  0  0  0
  -18.6782   18.6628  -38.2166 C   0  0  0  0  0  0  0  0  0  0  0  0
  -18.1960   19.0308  -39.3427 O   0  0  0  0  0  0  0  0  0  0  0  0
  -19.8958   19.3585  -37.8649 C   0  0  2  0  0  0  0  0  0  0  0  0
  -19.7110   20.7703  -38.2443 N   0  0  0  0  0  0  0  0  0  0  0  0
  -20.2765   21.3238  -39.4082 C   0  0  0  0  0  0  0  0  0  0  0  0
  -21.4928   21.6977  -39.3671 O   0  0  0  0  0  0  0  0  0  0  0  0
  -19.6013   21.5012  -40.6304 N   0  0  0  0  0  0  0  0  0  0  0  0
  -20.2087   22.1311  -41.7557 C   0  0  0  0  0  0  0  0  0  0  0  0
  -20.7649   21.2789  -42.7011 C   0  0  0  0  0  0  0  0  0  0  0  0
  -21.3707   21.8173  -43.8169 C   0  0  0  0  0  0  0  0  0  0  0  0
  -21.4076   23.1819  -43.9629 C   0  0  0  0  0  0  0  0  0  0  0  0
  -20.8607   24.0489  -43.0349 C   0  0  0  0  0  0  0  0  0  0  0  0
  -20.9370   25.4802  -43.2549 C   0  0  0  0  0  0  0  0  0  0  0  0
  -21.5944   25.9217  -44.2209 O   0  0  0  0  0  0  0  0  0  0  0  0
  -20.2944   26.3580  -42.4130 O   0  0  0  0  0  0  0  0  0  0  0  0
  -20.2587   23.4955  -41.9251 C   0  0  0  0  0  0  0  0  0  0  0  0
  -20.3151   19.3712  -36.4408 C   0  0  0  0  0  0  0  0  0  0  0  0
  -20.4981   18.0041  -35.9069 N   0  0  0  0  0  0  0  0  0  0  0  0
  -21.8244   17.5473  -35.6047 C   0  0  0  0  0  0  0  0  0  0  0  0
  -22.7994   18.4275  -34.9556 C   0  0  0  0  0  0  0  0  0  0  0  0
  -24.2397   18.2365  -35.4624 C   0  0  0  0  0  0  0  0  0  0  0  0
  -24.6324   16.8037  -35.4963 C   0  0  0  0  0  0  0  0  0  0  0  0
  -23.5326   15.8570  -35.8414 C   0  0  0  0  0  0  0  0  0  0  0  0
  -22.3845   16.5575  -36.5881 C   0  0  0  0  0  0  0  0  0  0  0  0
  -19.4041   17.1348  -35.6623 C   0  0  0  0  0  0  0  0  0  0  0  0
  -19.6364   16.4084  -34.5141 C   0  0  0  0  0  0  0  0  0  0  0  0
  -18.6886   15.4943  -34.0983 C   0  0  0  0  0  0  0  0  0  0  0  0
  -17.5423   15.3485  -34.8558 C   0  0  0  0  0  0  0  0  0  0  0  0
  -17.2900   16.0663  -36.0076 C   0  0  0  0  0  0  0  0  0  0  0  0
  -18.2382   16.9685  -36.4090 C   0  0  0  0  0  0  0  0  0  0  0  0
  1  2  1  0
  2  3  1  0
  2  4  1  0
  2  5  1  0
  5  6  2  0
  5  7  1  0
  7  8  1  0
  8  9  1  0
  9 10  2  0
  9 11  1  0
 11 12  1  1
 12 13  1  0
 13 14  2  0
 13 15  1  0
 15 16  1  0
 16 17  2  0
 17 18  1  0
 18 19  2  0
 19 20  1  0
 20 21  1  0
 21 22  2  0
 21 23  1  0
 20 24  2  0
 11 25  1  0
 25 26  1  0
 26 27  1  0
 27 28  1  0
 28 29  1  0
 29 30  1  0
 30 31  1  0
 31 32  1  0
 26 33  1  0
 33 34  2  0
 34 35  1  0
 35 36  2  0
 36 37  1  0
 37 38  2  0
 38  8  1  0
 24 16  1  0
 32 27  1  0
 38 33  1  0
M  END
$$$$
