
     RDKit          3D

 40 41  0  0  0  0  0  0  0  0999 V2000
  -15.8497   22.9968  -43.9007 C   0  0  0  0  0  0  0  0  0  0  0  0
  -16.3187   21.6495  -43.3911 C   0  0  0  0  0  0  0  0  0  0  0  0
  -17.8234   21.6543  -43.1607 C   0  0  0  0  0  0  0  0  0  0  0  0
  -15.9770   20.6218  -44.4155 C   0  0  0  0  0  0  0  0  0  0  0  0
  -14.6611   19.9461  -44.1437 C   0  0  2  0  0  0  0  0  0  0  0  0
  -14.6227   19.7144  -42.6871 N   0  0  0  0  0  0  0  0  0  0  0  0
  -14.2429   18.4540  -42.1550 C   0  0  0  0  0  0  0  0  0  0  0  0
  -13.8323   17.5277  -42.9058 O   0  0  0  0  0  0  0  0  0  0  0  0
  -14.3480   18.2712  -40.6884 C   0  0  2  0  0  0  0  0  0  0  0  0
  -13.3151   17.2603  -40.1939 C   0  0  0  0  0  0  0  0  0  0  0  0
  -11.9985   17.7395  -40.6793 C   0  0  0  0  0  0  0  0  0  0  0  0
  -11.8939   18.6516  -41.7164 C   0  0  0  0  0  0  0  0  0  0  0  0
  -10.6698   19.0982  -42.1690 C   0  0  0  0  0  0  0  0  0  0  0  0
   -9.4958   18.6529  -41.6048 C   0  0  0  0  0  0  0  0  0  0  0  0
   -9.5785   17.7417  -40.5678 C   0  0  0  0  0  0  0  0  0  0  0  0
  -10.8220   17.2963  -40.1175 C   0  0  0  0  0  0  0  0  0  0  0  0
  -15.6745   17.8267  -40.2823 N   0  0  0  0  0  0  0  0  0  0  0  0
  -16.6603   18.7549  -39.9252 C   0  0  0  0  0  0  0  0  0  0  0  0
  -16.3412   19.9909  -39.9463 O   0  0  0  0  0  0  0  0  0  0  0  0
  -18.0176   18.4178  -39.5327 C   0  0  0  0  0  0  0  0  0  0  0  0
  -18.2253   18.3448  -38.1079 N   0  0  0  0  0  0  0  0  0  0  0  0
  -19.5172   17.9891  -37.5860 C   0  0  0  0  0  0  0  0  0  0  0  0
  -20.4633   17.8826  -38.3919 O   0  0  0  0  0  0  0  0  0  0  0  0
  -19.6441   17.7714  -36.1236 C   0  0  0  0  0  0  0  0  0  0  0  0
  -18.5721   18.4570  -35.4708 N   0  0  0  0  0  0  0  0  0  0  0  0
  -18.7682   19.0086  -34.1858 C   0  0  0  0  0  0  0  0  0  0  0  0
  -18.9944   20.2288  -34.0343 O   0  0  0  0  0  0  0  0  0  0  0  0
  -18.7040   18.1228  -33.0018 C   0  0  1  0  0  0  0  0  0  0  0  0
  -18.5352   16.7458  -33.4260 N   0  0  0  0  0  0  0  0  0  0  0  0
  -17.5407   18.5638  -32.1233 C   0  0  0  0  0  0  0  0  0  0  0  0
  -17.5017   17.6475  -30.9636 C   0  0  0  0  0  0  0  0  0  0  0  0
  -17.7899   18.1192  -29.7040 C   0  0  0  0  0  0  0  0  0  0  0  0
  -17.7433   17.2414  -28.6547 C   0  0  0  0  0  0  0  0  0  0  0  0
  -17.4182   15.9046  -28.8164 C   0  0  0  0  0  0  0  0  0  0  0  0
  -17.3823   15.0467  -27.7233 O   0  0  0  0  0  0  0  0  0  0  0  0
  -17.1308   15.4352  -30.0733 C   0  0  0  0  0  0  0  0  0  0  0  0
  -17.1787   16.3203  -31.1258 C   0  0  0  0  0  0  0  0  0  0  0  0
  -13.4806   20.7713  -44.4968 C   0  0  0  0  0  0  0  0  0  0  0  0
  -13.0297   21.6316  -43.7107 O   0  0  0  0  0  0  0  0  0  0  0  0
  -12.8333   20.6181  -45.7141 O   0  0  0  0  0  0  0  0  0  0  0  0
  1  2  1  0
  2  3  1  0
  2  4  1  0
  5  4  1  1
  5  6  1  0
  6  7  1  0
  7  8  2  0
  7  9  1  0
  9 10  1  6
 10 11  1  0
 11 12  2  0
 12 13  1  0
 13 14  2  0
 14 15  1  0
 15 16  2  0
  9 17  1  0
 17 18  1  0
 18 19  2  0
 18 20  1  0
 20 21  1  0
 21 22  1  0
 22 23  2  0
 22 24  1  0
 24 25  1  0
 25 26  1  0
 26 27  2  0
 26 28  1  0
 28 29  1  6
 28 30  1  0
 30 31  1  0
 31 32  2  0
 32 33  1  0
 33 34  2  0
 34 35  1  0
 34 36  1  0
 36 37  2  0
  5 38  1  0
 38 39  2  0
 38 40  1  0
 16 11  1  0
 37 31  1  0
M  END
$$$$
