
     RDKit          3D

 33 34  0  0  0  0  0  0  0  0999 V2000
  -21.0744   36.6608  -24.9179 Cl  0  0  0  0  0  0  0  0  0  0  0  0
  -21.0771   36.6588  -24.9208 Cl  0  0  0  0  0  0  0  0  0  0  0  0
  -18.1651   41.3790  -21.4328 C   0  0  0  0  0  0  0  0  0  0  0  0
  -17.0678   40.6726  -21.8347 C   0  0  0  0  0  0  0  0  0  0  0  0
  -16.9957   39.3201  -21.7533 C   0  0  0  0  0  0  0  0  0  0  0  0
  -18.0708   38.5769  -21.2417 C   0  0  0  0  0  0  0  0  0  0  0  0
  -17.9181   37.1340  -21.0847 C   0  0  0  0  0  0  0  0  0  0  0  0
  -17.9593   36.2223  -22.2099 C   0  0  0  0  0  0  0  0  0  0  0  0
  -19.0712   35.9901  -23.1223 C   0  0  0  0  0  0  0  0  0  0  0  0
  -19.6009   36.9452  -23.9655 N   0  0  0  0  0  0  0  0  0  0  0  0
  -20.3850   38.0217  -23.5948 C   0  0  0  0  0  0  0  0  0  0  0  0
  -21.5942   38.2897  -24.5146 C   0  0  0  0  0  0  0  0  0  0  0  0
  -21.4247   37.5710  -25.6873 N   0  0  0  0  0  0  0  0  0  0  0  0
  -22.5210   36.9757  -26.3443 C   0  0  0  0  0  0  0  0  0  0  0  0
  -23.1367   35.8404  -25.5770 C   0  0  0  0  0  0  0  0  0  0  0  0
  -24.1916   35.2750  -26.2394 O   0  0  0  0  0  0  0  0  0  0  0  0
  -23.7872   34.7136  -27.4384 C   0  0  0  0  0  0  0  0  0  0  0  0
  -24.5360   35.3420  -28.5445 C   0  0  0  0  0  0  0  0  0  0  0  0
  -23.8946   35.6981  -29.7370 C   0  0  0  0  0  0  0  0  0  0  0  0
  -24.5870   36.2914  -30.7600 C   0  0  0  0  0  0  0  0  0  0  0  0
  -25.9454   36.5676  -30.6697 C   0  0  0  0  0  0  0  0  0  0  0  0
  -26.5752   36.2168  -29.4972 C   0  0  0  0  0  0  0  0  0  0  0  0
  -25.8722   35.6117  -28.4516 C   0  0  0  0  0  0  0  0  0  0  0  0
  -24.0501   33.2407  -27.3582 C   0  0  0  0  0  0  0  0  0  0  0  0
  -23.1038   32.3529  -27.8692 C   0  0  0  0  0  0  0  0  0  0  0  0
  -23.3201   30.9965  -27.7916 C   0  0  0  0  0  0  0  0  0  0  0  0
  -24.4624   30.4678  -27.2151 C   0  0  0  0  0  0  0  0  0  0  0  0
  -25.3930   31.3372  -26.7129 C   0  0  0  0  0  0  0  0  0  0  0  0
  -25.1772   32.6998  -26.7899 C   0  0  0  0  0  0  0  0  0  0  0  0
  -20.1429   37.4686  -26.2903 C   0  0  0  0  0  0  0  0  0  0  0  0
  -19.0823   36.9875  -25.3226 C   0  0  0  0  0  0  0  0  0  0  0  0
  -19.1677   39.3233  -20.8438 C   0  0  0  0  0  0  0  0  0  0  0  0
  -19.2455   40.6873  -20.9232 C   0  0  0  0  0  0  0  0  0  0  0  0
  3  4  2  0
  4  5  1  0
  5  6  2  0
  6  7  1  0
  7  8  1  0
  8  9  1  0
  9 10  1  0
 10 11  1  0
 11 12  1  0
 12 13  1  0
 13 14  1  0
 14 15  1  0
 15 16  1  0
 16 17  1  0
 17 18  1  0
 18 19  2  0
 19 20  1  0
 20 21  2  0
 21 22  1  0
 22 23  2  0
 17 24  1  0
 24 25  2  0
 25 26  1  0
 26 27  2  0
 27 28  1  0
 28 29  2  0
 13 30  1  0
 30 31  1  0
  6 32  1  0
 32 33  2  0
 33  3  1  0
 31 10  1  0
 23 18  1  0
 29 24  1  0
M  END
$$$$
