
     RDKit          3D

 28 30  0  0  0  0  0  0  0  0999 V2000
  -12.5877   44.3639  -17.2119 C   0  0  0  0  0  0  0  0  0  0  0  0
  -13.9639   44.6029  -17.8110 C   0  0  0  0  0  0  0  0  0  0  0  0
  -13.9832   44.0692  -19.1030 O   0  0  0  0  0  0  0  0  0  0  0  0
  -14.9773   44.3130  -20.0431 C   0  0  0  0  0  0  0  0  0  0  0  0
  -16.2101   44.8427  -19.6367 C   0  0  0  0  0  0  0  0  0  0  0  0
  -17.1755   45.0740  -20.5883 C   0  0  0  0  0  0  0  0  0  0  0  0
  -16.9648   44.7977  -21.9415 C   0  0  0  0  0  0  0  0  0  0  0  0
  -18.0596   45.0785  -22.8664 C   0  0  0  0  0  0  0  0  0  0  0  0
  -18.8208   43.8771  -23.3046 C   0  0  0  0  0  0  0  0  0  0  0  0
  -19.0865   42.8563  -22.3768 C   0  0  0  0  0  0  0  0  0  0  0  0
  -19.8134   41.7395  -22.7028 C   0  0  0  0  0  0  0  0  0  0  0  0
  -20.0450   40.7307  -21.6377 C   0  0  2  0  0  0  0  0  0  0  0  0
  -18.8893   40.2594  -21.0854 O   0  0  0  0  0  0  0  0  0  0  0  0
  -18.6554   38.9154  -21.1694 C   0  0  2  0  0  0  0  0  0  0  0  0
  -18.2268   38.4790  -22.8606 S   0  0  0  0  0  0  0  0  0  0  0  0
  -16.4473   38.5143  -23.1590 C   0  0  0  0  0  0  0  0  0  0  0  0
  -19.7466   38.0945  -20.5891 C   0  0  1  0  0  0  0  0  0  0  0  0
  -19.6228   38.0322  -19.1794 O   0  0  0  0  0  0  0  0  0  0  0  0
  -21.0839   38.6786  -20.8946 C   0  0  2  0  0  0  0  0  0  0  0  0
  -22.0648   37.7157  -21.1105 O   0  0  0  0  0  0  0  0  0  0  0  0
  -21.0238   39.6568  -22.0685 C   0  0  1  0  0  0  0  0  0  0  0  0
  -22.3290   40.1914  -22.1775 O   0  0  0  0  0  0  0  0  0  0  0  0
  -20.3123   41.5803  -23.9710 C   0  0  0  0  0  0  0  0  0  0  0  0
  -20.0618   42.5702  -24.8958 C   0  0  0  0  0  0  0  0  0  0  0  0
  -19.3215   43.7095  -24.5656 C   0  0  0  0  0  0  0  0  0  0  0  0
  -19.0250   44.9204  -25.8257 Cl  0  0  0  0  0  0  0  0  0  0  0  0
  -15.7710   44.2859  -22.3200 C   0  0  0  0  0  0  0  0  0  0  0  0
  -14.7770   44.0466  -21.3539 C   0  0  0  0  0  0  0  0  0  0  0  0
  1  2  1  0
  2  3  1  0
  3  4  1  0
  4  5  2  0
  5  6  1  0
  6  7  2  0
  7  8  1  0
  8  9  1  0
  9 10  2  0
 10 11  1  0
 12 11  1  6
 12 13  1  0
 13 14  1  0
 14 15  1  6
 15 16  1  0
 14 17  1  0
 17 18  1  1
 17 19  1  0
 19 20  1  6
 19 21  1  0
 21 22  1  1
 11 23  2  0
 23 24  1  0
 24 25  2  0
 25 26  1  0
  7 27  1  0
 27 28  2  0
 28  4  1  0
 25  9  1  0
 21 12  1  0
M  END
$$$$
