
     RDKit          3D

 26 28  0  0  0  0  0  0  0  0999 V2000
  -37.5323   15.2293  -25.7700 O   0  0  0  0  0  0  0  0  0  0  0  0
  -36.8384   14.8051  -24.8179 C   0  0  0  0  0  0  0  0  0  0  0  0
  -37.5674   14.1000  -23.8259 O   0  0  0  0  0  0  0  0  0  0  0  0
  -35.3874   14.9779  -24.6615 C   0  0  0  0  0  0  0  0  0  0  0  0
  -34.7704   14.0318  -23.7182 C   0  0  0  0  0  0  0  0  0  0  0  0
  -33.3320   14.1158  -23.4891 C   0  0  0  0  0  0  0  0  0  0  0  0
  -32.7670   15.0443  -22.6121 C   0  0  0  0  0  0  0  0  0  0  0  0
  -31.3950   15.1324  -22.4330 C   0  0  0  0  0  0  0  0  0  0  0  0
  -30.5014   14.3218  -23.0988 C   0  0  0  0  0  0  0  0  0  0  0  0
  -29.0997   14.3934  -22.9594 N   0  0  0  0  0  0  0  0  0  0  0  0
  -28.1055   14.7967  -23.8775 C   0  0  0  0  0  0  0  0  0  0  0  0
  -26.8808   15.3854  -23.3313 C   0  0  0  0  0  0  0  0  0  0  0  0
  -26.9781   16.4920  -22.4946 C   0  0  0  0  0  0  0  0  0  0  0  0
  -25.8515   17.0929  -21.9870 C   0  0  0  0  0  0  0  0  0  0  0  0
  -24.6156   16.6094  -22.2987 C   0  0  0  0  0  0  0  0  0  0  0  0
  -24.5033   15.5208  -23.1214 C   0  0  0  0  0  0  0  0  0  0  0  0
  -23.2545   15.0182  -23.4471 O   0  0  0  0  0  0  0  0  0  0  0  0
  -22.6674   14.1085  -22.5918 C   0  0  0  0  0  0  0  0  0  0  0  0
  -23.2734   13.7476  -21.4271 C   0  0  0  0  0  0  0  0  0  0  0  0
  -22.6642   12.8253  -20.5738 C   0  0  0  0  0  0  0  0  0  0  0  0
  -21.4447   12.2884  -20.9279 C   0  0  0  0  0  0  0  0  0  0  0  0
  -20.8221   12.6358  -22.0878 C   0  0  0  0  0  0  0  0  0  0  0  0
  -21.4487   13.5601  -22.9272 C   0  0  0  0  0  0  0  0  0  0  0  0
  -25.6444   14.9094  -23.6381 C   0  0  0  0  0  0  0  0  0  0  0  0
  -31.0792   13.3967  -23.9740 C   0  0  0  0  0  0  0  0  0  0  0  0
  -32.4425   13.3078  -24.1534 C   0  0  0  0  0  0  0  0  0  0  0  0
  1  2  2  0
  2  3  1  0
  2  4  1  0
  4  5  1  0
  5  6  1  0
  6  7  2  0
  7  8  1  0
  8  9  2  0
  9 10  1  0
 10 11  1  0
 11 12  1  0
 12 13  2  0
 13 14  1  0
 14 15  2  0
 15 16  1  0
 16 17  1  0
 17 18  1  0
 18 19  2  0
 19 20  1  0
 20 21  2  0
 21 22  1  0
 22 23  2  0
 16 24  2  0
  9 25  1  0
 25 26  2  0
 26  6  1  0
 24 12  1  0
 23 18  1  0
M  END
$$$$
