
     RDKit          3D

 23 26  0  0  0  0  0  0  0  0999 V2000
  -11.3011   24.6452  -13.6761 C   0  0  0  0  0  0  0  0  0  0  0  0
  -10.1820   23.9593  -13.2266 C   0  0  0  0  0  0  0  0  0  0  0  0
  -10.0190   23.8019  -11.8564 C   0  0  0  0  0  0  0  0  0  0  0  0
  -10.9362   24.3081  -10.9395 C   0  0  0  0  0  0  0  0  0  0  0  0
  -10.7496   24.1122   -9.5389 N   0  0  0  0  0  0  0  0  0  0  0  0
  -10.1535   22.9122   -9.0665 C   0  0  0  0  0  0  0  0  0  0  0  0
   -9.9016   21.8373   -9.8311 N   0  0  0  0  0  0  0  0  0  0  0  0
   -9.3340   20.7472   -9.3126 C   0  0  0  0  0  0  0  0  0  0  0  0
   -9.0390   19.5505  -10.0938 C   0  0  0  0  0  0  0  0  0  0  0  0
   -9.6424   19.3305  -11.3047 C   0  0  0  0  0  0  0  0  0  0  0  0
   -9.3683   18.1930  -12.0614 C   0  0  0  0  0  0  0  0  0  0  0  0
   -8.4736   17.2469  -11.6084 C   0  0  0  0  0  0  0  0  0  0  0  0
   -7.8654   17.4590  -10.3982 C   0  0  0  0  0  0  0  0  0  0  0  0
   -8.1421   18.6007   -9.6420 C   0  0  0  0  0  0  0  0  0  0  0  0
   -9.0168   20.7416   -8.0132 N   0  0  0  0  0  0  0  0  0  0  0  0
   -9.2377   21.7729   -7.1966 C   0  0  0  0  0  0  0  0  0  0  0  0
   -8.8774   21.7092   -5.8402 C   0  0  0  0  0  0  0  0  0  0  0  0
   -9.1048   22.7701   -5.0227 C   0  0  0  0  0  0  0  0  0  0  0  0
   -9.6897   23.8984   -5.5423 C   0  0  0  0  0  0  0  0  0  0  0  0
  -10.0494   23.9692   -6.8852 C   0  0  0  0  0  0  0  0  0  0  0  0
   -9.8227   22.9034   -7.7144 C   0  0  0  0  0  0  0  0  0  0  0  0
  -12.0439   24.9881  -11.3934 C   0  0  0  0  0  0  0  0  0  0  0  0
  -12.2267   25.1567  -12.7631 C   0  0  0  0  0  0  0  0  0  0  0  0
  1  2  2  0
  2  3  1  0
  3  4  2  0
  4  5  1  0
  5  6  1  0
  6  7  2  0
  7  8  1  0
  8  9  1  0
  9 10  2  0
 10 11  1  0
 11 12  2  0
 12 13  1  0
 13 14  2  0
  8 15  2  0
 15 16  1  0
 16 17  2  0
 17 18  1  0
 18 19  2  0
 19 20  1  0
 20 21  2  0
  4 22  1  0
 22 23  2  0
 23  1  1  0
 21  6  1  0
 14  9  1  0
 21 16  1  0
M  END
$$$$
