
     RDKit          3D

 20 19  0  0  0  0  0  0  0  0999 V2000
   -7.7110   17.5460  -41.3826 C   0  0  0  0  0  0  0  0  0  0  0  0
   -9.0817   17.9861  -40.9802 C   0  0  0  0  0  0  0  0  0  0  0  0
   -9.9053   16.8715  -40.3812 C   0  0  0  0  0  0  0  0  0  0  0  0
  -11.2624   17.3150  -39.9442 C   0  0  0  0  0  0  0  0  0  0  0  0
  -12.3546   16.3777  -40.3476 C   0  0  0  0  0  0  0  0  0  0  0  0
  -13.6924   16.7796  -39.8180 C   0  0  0  0  0  0  0  0  0  0  0  0
  -14.7286   15.7704  -40.3013 C   0  0  0  0  0  0  0  0  0  0  0  0
  -16.0646   16.1936  -39.6936 C   0  0  0  0  0  0  0  0  0  0  0  0
  -16.4653   17.5485  -40.1688 C   0  0  0  0  0  0  0  0  0  0  0  0
  -17.1116   18.4074  -39.3942 C   0  0  0  0  0  0  0  0  0  0  0  0
  -17.3908   19.7790  -39.8803 C   0  0  0  0  0  0  0  0  0  0  0  0
  -18.1726   19.7404  -41.2016 C   0  0  0  0  0  0  0  0  0  0  0  0
  -19.2572   20.7554  -41.0901 C   0  0  0  0  0  0  0  0  0  0  0  0
  -19.5930   21.4497  -42.3751 C   0  0  0  0  0  0  0  0  0  0  0  0
  -20.6677   22.4911  -42.2436 C   0  0  0  0  0  0  0  0  0  0  0  0
  -21.0798   23.0315  -43.5694 C   0  0  0  0  0  0  0  0  0  0  0  0
  -22.1544   24.0653  -43.5119 C   0  0  0  0  0  0  0  0  0  0  0  0
  -21.7181   25.3975  -43.0837 C   0  0  0  0  0  0  0  0  0  0  0  0
  -20.8028   26.0037  -43.6779 O   0  0  0  0  0  0  0  0  0  0  0  0
  -22.3735   25.9703  -41.9716 O   0  0  0  0  0  0  0  0  0  0  0  0
  1  2  1  0
  2  3  1  0
  3  4  1  0
  4  5  1  0
  5  6  1  0
  6  7  1  0
  7  8  1  0
  8  9  1  0
  9 10  2  0
 10 11  1  0
 11 12  1  0
 12 13  1  0
 13 14  1  0
 14 15  1  0
 15 16  1  0
 16 17  1  0
 17 18  1  0
 18 19  2  0
 18 20  1  0
M  END
$$$$
