
     RDKit          3D

 47 52  0  0  0  0  0  0  0  0999 V2000
  -16.0148   24.3552  -47.5292 C   0  0  0  0  0  0  0  0  0  0  0  0
  -17.0096   23.8745  -46.8276 C   0  0  0  0  0  0  0  0  0  0  0  0
  -16.7826   23.0888  -45.6155 C   0  0  0  0  0  0  0  0  0  0  0  0
  -16.1003   22.0264  -45.6948 O   0  0  0  0  0  0  0  0  0  0  0  0
  -17.2822   23.4421  -44.3421 N   0  0  0  0  0  0  0  0  0  0  0  0
  -17.2006   22.4884  -43.2636 C   0  0  0  0  0  0  0  0  0  0  0  0
  -16.9259   22.9692  -41.9907 C   0  0  0  0  0  0  0  0  0  0  0  0
  -16.8336   22.0853  -40.9369 C   0  0  0  0  0  0  0  0  0  0  0  0
  -17.0136   20.7306  -41.1481 C   0  0  0  0  0  0  0  0  0  0  0  0
  -16.8979   19.8136  -40.0098 C   0  0  0  0  0  0  0  0  0  0  0  0
  -15.9670   18.7373  -40.1568 N   0  0  0  0  0  0  0  0  0  0  0  0
  -14.6178   18.9295  -40.5296 C   0  0  0  0  0  0  0  0  0  0  0  0
  -14.1983   20.1131  -40.7299 O   0  0  0  0  0  0  0  0  0  0  0  0
  -13.7357   17.8340  -40.6821 N   0  0  0  0  0  0  0  0  0  0  0  0
  -12.4241   18.1105  -41.2170 C   0  0  0  0  0  0  0  0  0  0  0  0
  -11.3056   17.7063  -40.5702 C   0  0  0  0  0  0  0  0  0  0  0  0
  -10.0452   17.9715  -41.1060 C   0  0  0  0  0  0  0  0  0  0  0  0
   -8.8898   17.5671  -40.4607 O   0  0  0  0  0  0  0  0  0  0  0  0
   -8.5749   16.2170  -40.2209 C   0  0  0  0  0  0  0  0  0  0  0  0
   -9.9495   18.6530  -42.3065 C   0  0  0  0  0  0  0  0  0  0  0  0
  -11.0933   19.0645  -42.9642 C   0  0  0  0  0  0  0  0  0  0  0  0
  -11.0525   19.7455  -44.1619 O   0  0  0  0  0  0  0  0  0  0  0  0
  -11.6181   21.0210  -44.3792 C   0  0  0  0  0  0  0  0  0  0  0  0
  -12.3409   18.7810  -42.3973 C   0  0  0  0  0  0  0  0  0  0  0  0
  -14.1149   16.5127  -40.3447 C   0  0  0  0  0  0  0  0  0  0  0  0
  -15.5449   16.3261  -40.0697 C   0  0  0  0  0  0  0  0  0  0  0  0
  -16.0798   15.0402  -39.8963 C   0  0  0  0  0  0  0  0  0  0  0  0
  -17.3789   14.8921  -39.6097 N   0  0  0  0  0  0  0  0  0  0  0  0
  -18.2215   15.9134  -39.4742 C   0  0  0  0  0  0  0  0  0  0  0  0
  -19.5889   15.8293  -39.1867 N   0  0  0  0  0  0  0  0  0  0  0  0
  -20.5599   16.8567  -39.2971 C   0  0  0  0  0  0  0  0  0  0  0  0
  -21.8708   16.6438  -39.6364 C   0  0  0  0  0  0  0  0  0  0  0  0
  -22.8072   17.6873  -39.7339 C   0  0  0  0  0  0  0  0  0  0  0  0
  -22.4685   18.9931  -39.4947 C   0  0  0  0  0  0  0  0  0  0  0  0
  -23.3476   20.0914  -39.5694 N   0  0  0  0  0  0  0  0  0  0  0  0
  -22.8977   21.4360  -39.7639 C   0  0  0  0  0  0  0  0  0  0  0  0
  -23.3505   22.3353  -38.6018 C   0  0  0  0  0  0  0  0  0  0  0  0
  -24.6971   22.0194  -38.2227 N   0  0  0  0  0  0  0  0  0  0  0  0
  -25.4223   23.2365  -37.9533 C   0  0  0  0  0  0  0  0  0  0  0  0
  -25.4065   21.2719  -39.2421 C   0  0  0  0  0  0  0  0  0  0  0  0
  -24.7818   19.8891  -39.4436 C   0  0  0  0  0  0  0  0  0  0  0  0
  -21.1274   19.2020  -39.1490 C   0  0  0  0  0  0  0  0  0  0  0  0
  -20.2087   18.1916  -39.0517 C   0  0  0  0  0  0  0  0  0  0  0  0
  -17.6960   17.1445  -39.6439 N   0  0  0  0  0  0  0  0  0  0  0  0
  -16.4017   17.3798  -39.9341 C   0  0  0  0  0  0  0  0  0  0  0  0
  -17.2862   20.2525  -42.4083 C   0  0  0  0  0  0  0  0  0  0  0  0
  -17.3783   21.1435  -43.4646 C   0  0  0  0  0  0  0  0  0  0  0  0
  1  2  2  0
  2  3  1  0
  3  4  2  0
  3  5  1  0
  5  6  1  0
  6  7  2  0
  7  8  1  0
  8  9  2  0
  9 10  1  0
 10 11  1  0
 11 12  1  0
 12 13  2  0
 12 14  1  0
 14 15  1  0
 15 16  2  0
 16 17  1  0
 17 18  1  0
 18 19  1  0
 17 20  2  0
 20 21  1  0
 21 22  1  0
 22 23  1  0
 21 24  2  0
 14 25  1  0
 25 26  1  0
 26 27  2  0
 27 28  1  0
 28 29  2  0
 29 30  1  0
 30 31  1  0
 31 32  2  0
 32 33  1  0
 33 34  2  0
 34 35  1  0
 35 36  1  0
 36 37  1  0
 37 38  1  0
 38 39  1  0
 38 40  1  0
 40 41  1  0
 34 42  1  0
 42 43  2  0
 29 44  1  0
 44 45  2  0
  9 46  1  0
 46 47  2  0
 47  6  1  0
 45 11  1  0
 24 15  1  0
 45 26  1  0
 43 31  1  0
 41 35  1  0
M  END
$$$$
