
     RDKit          3D

 23 24  0  0  0  0  0  0  0  0999 V2000
  -21.4252   40.5288  -28.0989 C   0  0  0  0  0  0  0  0  0  0  0  0
  -21.5945   39.7664  -26.7888 C   0  0  0  0  0  0  0  0  0  0  0  0
  -21.9225   38.3147  -27.0532 C   0  0  0  0  0  0  0  0  0  0  0  0
  -22.0834   37.6264  -25.8281 N   0  0  0  0  0  0  0  0  0  0  0  0
  -22.4185   36.2352  -25.9473 C   0  0  0  0  0  0  0  0  0  0  0  0
  -23.8010   36.0015  -26.5147 C   0  0  0  0  0  0  0  0  0  0  0  0
  -23.9543   34.4804  -26.5573 C   0  0  0  0  0  0  0  0  0  0  0  0
  -24.4351   33.6612  -25.6231 C   0  0  0  0  0  0  0  0  0  0  0  0
  -24.4847   32.3373  -25.8635 C   0  0  0  0  0  0  0  0  0  0  0  0
  -24.0463   31.8863  -27.0402 C   0  0  0  0  0  0  0  0  0  0  0  0
  -23.5271   33.4323  -27.8697 S   0  0  0  0  0  0  0  0  0  0  0  0
  -21.0932   37.8586  -24.8407 C   0  0  0  0  0  0  0  0  0  0  0  0
  -19.6833   37.5029  -25.2522 C   0  0  0  0  0  0  0  0  0  0  0  0
  -18.7427   38.0263  -24.2085 C   0  0  0  0  0  0  0  0  0  0  0  0
  -19.3086   38.1520  -22.8612 C   0  0  0  0  0  0  0  0  0  0  0  0
  -18.5699   38.7688  -21.8874 C   0  0  0  0  0  0  0  0  0  0  0  0
  -17.3145   39.2571  -22.1920 O   0  0  0  0  0  0  0  0  0  0  0  0
  -19.0612   38.9104  -20.6032 C   0  0  0  0  0  0  0  0  0  0  0  0
  -20.3256   38.4199  -20.2920 C   0  0  0  0  0  0  0  0  0  0  0  0
  -21.0808   37.7997  -21.2506 C   0  0  0  0  0  0  0  0  0  0  0  0
  -20.5468   37.6835  -22.5141 C   0  0  0  0  0  0  0  0  0  0  0  0
  -21.3485   37.0113  -23.5841 C   0  0  0  0  0  0  0  0  0  0  0  0
  -20.9536   37.5747  -24.5238 Cl  0  0  0  0  0  0  0  0  0  0  0  0
  1  2  1  0
  2  3  1  0
  3  4  1  0
  4  5  1  0
  5  6  1  0
  6  7  1  0
  7  8  2  0
  8  9  1  0
  9 10  2  0
 10 11  1  0
  4 12  1  0
 12 13  1  0
 13 14  1  0
 14 15  1  0
 15 16  2  0
 16 17  1  0
 16 18  1  0
 18 19  2  0
 19 20  1  0
 20 21  2  0
 21 22  1  0
 11  7  1  0
 22 12  1  0
 21 15  1  0
M  END
$$$$
