
     RDKit          3D

 27 29  0  0  0  0  0  0  0  0999 V2000
  -19.6460   34.8784  -20.2988 C   0  0  0  0  0  0  0  0  0  0  0  0
  -20.6274   36.0032  -21.2620 S   0  0  0  0  0  6  0  0  0  0  0  0
  -21.9577   36.1503  -20.6266 O   0  0  0  0  0  0  0  0  0  0  0  0
  -20.8219   35.5047  -22.6655 O   0  0  0  0  0  0  0  0  0  0  0  0
  -19.8193   37.5545  -21.2328 C   0  0  0  0  0  0  0  0  0  0  0  0
  -20.2202   38.5719  -20.3936 C   0  0  0  0  0  0  0  0  0  0  0  0
  -19.5524   39.7798  -20.4062 C   0  0  0  0  0  0  0  0  0  0  0  0
  -18.4768   40.0142  -21.2430 C   0  0  0  0  0  0  0  0  0  0  0  0
  -17.7885   41.3044  -21.2382 C   0  0  0  0  0  0  0  0  0  0  0  0
  -17.9235   42.1027  -22.2097 O   0  0  0  0  0  0  0  0  0  0  0  0
  -16.9667   41.6789  -20.1559 N   0  0  0  0  0  0  0  0  0  0  0  0
  -16.2397   42.8962  -20.0786 C   0  0  0  0  0  0  0  0  0  0  0  0
  -14.8784   42.8137  -19.8914 C   0  0  0  0  0  0  0  0  0  0  0  0
  -14.1603   44.0011  -19.8131 C   0  0  0  0  0  0  0  0  0  0  0  0
  -14.8187   45.2053  -19.9229 C   0  0  0  0  0  0  0  0  0  0  0  0
  -13.9148   46.7008  -19.8244 Cl  0  0  0  0  0  0  0  0  0  0  0  0
  -16.1931   45.3124  -20.1122 C   0  0  0  0  0  0  0  0  0  0  0  0
  -16.8202   46.6241  -20.2179 C   0  0  0  0  0  0  0  0  0  0  0  0
  -16.2963   47.6614  -20.9484 C   0  0  0  0  0  0  0  0  0  0  0  0
  -16.9346   48.9022  -21.0207 C   0  0  0  0  0  0  0  0  0  0  0  0
  -18.1173   49.0920  -20.3444 C   0  0  0  0  0  0  0  0  0  0  0  0
  -18.6216   48.0390  -19.6204 C   0  0  0  0  0  0  0  0  0  0  0  0
  -17.9724   46.8642  -19.5802 N   0  0  0  0  0  0  0  0  0  0  0  0
  -16.8841   44.1232  -20.1868 C   0  0  0  0  0  0  0  0  0  0  0  0
  -18.0758   38.9976  -22.0818 C   0  0  0  0  0  0  0  0  0  0  0  0
  -16.7367   39.2005  -23.1647 Cl  0  0  0  0  0  0  0  0  0  0  0  0
  -18.7420   37.7695  -22.0803 C   0  0  0  0  0  0  0  0  0  0  0  0
  1  2  1  0
  2  3  2  0
  2  4  2  0
  2  5  1  0
  5  6  2  0
  6  7  1  0
  7  8  2  0
  8  9  1  0
  9 10  2  0
  9 11  1  0
 11 12  1  0
 12 13  2  0
 13 14  1  0
 14 15  2  0
 15 16  1  0
 15 17  1  0
 17 18  1  0
 18 19  2  0
 19 20  1  0
 20 21  2  0
 21 22  1  0
 22 23  2  0
 17 24  2  0
  8 25  1  0
 25 26  1  0
 25 27  2  0
 27  5  1  0
 24 12  1  0
 23 18  1  0
M  END
$$$$
