
     RDKit          3D

 28 30  0  0  0  0  0  0  0  0999 V2000
  -16.9558   30.6306  -20.7815 C   0  0  0  0  0  0  0  0  0  0  0  0
  -16.9952   32.0403  -20.2604 C   0  0  0  0  0  0  0  0  0  0  0  0
  -17.9801   32.8998  -20.9702 C   0  0  0  0  0  0  0  0  0  0  0  0
  -17.7184   34.2462  -21.1953 C   0  0  0  0  0  0  0  0  0  0  0  0
  -16.4359   34.8296  -20.7417 C   0  0  0  0  0  0  0  0  0  0  0  0
  -18.6677   34.9964  -21.8451 N   0  0  0  0  0  0  0  0  0  0  0  0
  -19.8325   34.5110  -22.2787 C   0  0  0  0  0  0  0  0  0  0  0  0
  -21.0724   35.5087  -23.0845 S   0  0  0  0  0  0  0  0  0  0  0  0
  -20.5030   37.1860  -23.4551 C   0  0  0  0  0  0  0  0  0  0  0  0
  -20.1879   37.9519  -22.2051 C   0  0  0  0  0  0  0  0  0  0  0  0
  -21.0518   38.0659  -21.3196 O   0  0  0  0  0  0  0  0  0  0  0  0
  -18.9242   38.5491  -22.0309 N   0  0  0  0  0  0  0  0  0  0  0  0
  -18.7278   39.6643  -21.1520 C   0  0  0  0  0  0  0  0  0  0  0  0
  -17.9785   40.5910  -21.0341 N   0  0  0  0  0  0  0  0  0  0  0  0
  -17.9664   41.5295  -20.1301 C   0  0  0  0  0  0  0  0  0  0  0  0
  -16.9856   42.6602  -20.1299 C   0  0  0  0  0  0  0  0  0  0  0  0
  -16.7940   43.4360  -19.0209 C   0  0  0  0  0  0  0  0  0  0  0  0
  -15.9008   44.5123  -19.0141 C   0  0  0  0  0  0  0  0  0  0  0  0
  -15.1906   44.8063  -20.1520 C   0  0  0  0  0  0  0  0  0  0  0  0
  -14.3062   45.8722  -20.1536 O   0  0  0  0  0  0  0  0  0  0  0  0
  -14.3872   46.9049  -19.1730 C   0  0  0  0  0  0  0  0  0  0  0  0
  -15.3714   44.0376  -21.2719 C   0  0  0  0  0  0  0  0  0  0  0  0
  -16.2603   42.9670  -21.2752 C   0  0  0  0  0  0  0  0  0  0  0  0
  -18.9519   41.4339  -19.1835 C   0  0  0  0  0  0  0  0  0  0  0  0
  -19.8445   39.9382  -19.7076 S   0  0  0  0  0  0  0  0  0  0  0  0
  -20.0749   33.1842  -22.0532 N   0  0  0  0  0  0  0  0  0  0  0  0
  -19.1836   32.4098  -21.4226 C   0  0  0  0  0  0  0  0  0  0  0  0
  -19.5066   31.0618  -21.2270 O   0  0  0  0  0  0  0  0  0  0  0  0
  1  2  1  0
  2  3  1  0
  3  4  2  0
  4  5  1  0
  4  6  1  0
  6  7  2  0
  7  8  1  0
  8  9  1  0
  9 10  1  0
 10 11  2  0
 10 12  1  0
 12 13  1  0
 13 14  2  0
 14 15  1  0
 15 16  1  0
 16 17  2  0
 17 18  1  0
 18 19  2  0
 19 20  1  0
 20 21  1  0
 19 22  1  0
 22 23  2  0
 15 24  2  0
 24 25  1  0
  7 26  1  0
 26 27  2  0
 27 28  1  0
 27  3  1  0
 25 13  1  0
 23 16  1  0
M  END
$$$$
