
     RDKit          3D

 28 31  0  0  0  0  0  0  0  0999 V2000
  -20.1631   25.1383  -45.7965 N   0  0  0  0  0  0  0  0  0  0  0  0
  -20.5345   25.0262  -44.6989 C   0  0  0  0  0  0  0  0  0  0  0  0
  -20.9757   24.8814  -43.3447 C   0  0  0  0  0  0  0  0  0  0  0  0
  -20.7953   26.0455  -42.5228 C   0  0  0  0  0  0  0  0  0  0  0  0
  -21.3585   26.0814  -41.2920 C   0  0  0  0  0  0  0  0  0  0  0  0
  -22.1188   25.1218  -40.6483 C   0  0  0  0  0  0  0  0  0  0  0  0
  -22.7995   25.3292  -39.4558 N   0  0  0  0  0  0  0  0  0  0  0  0
  -23.5131   24.1608  -38.8617 C   0  0  0  0  0  0  0  0  0  0  0  0
  -23.1716   23.0382  -39.2478 O   0  0  0  0  0  0  0  0  0  0  0  0
  -24.4960   24.4634  -37.8906 N   0  0  0  0  0  0  0  0  0  0  0  0
  -24.1733   23.9459  -36.5164 C   0  0  0  0  0  0  0  0  0  0  0  0
  -23.7194   25.1712  -35.7701 C   0  0  0  0  0  0  0  0  0  0  0  0
  -22.3985   25.4541  -35.5784 C   0  0  0  0  0  0  0  0  0  0  0  0
  -22.3156   26.4863  -34.7412 N   0  0  0  0  0  0  0  0  0  0  0  0
  -23.6151   26.8245  -34.4502 C   0  0  0  0  0  0  0  0  0  0  0  0
  -24.5047   27.9890  -33.5151 S   0  0  0  0  0  0  0  0  0  0  0  0
  -26.0772   27.4202  -33.9719 C   0  0  0  0  0  0  0  0  0  0  0  0
  -25.7853   26.3292  -34.8508 C   0  0  0  0  0  0  0  0  0  0  0  0
  -26.9797   25.8326  -35.5842 C   0  0  0  0  0  0  0  0  0  0  0  0
  -26.9648   25.7693  -37.0102 C   0  0  0  0  0  0  0  0  0  0  0  0
  -28.0116   25.2050  -37.6482 C   0  0  0  0  0  0  0  0  0  0  0  0
  -29.1357   24.6705  -37.0419 C   0  0  0  0  0  0  0  0  0  0  0  0
  -30.5839   23.8776  -38.0187 Br  0  0  0  0  0  0  0  0  0  0  0  0
  -29.1769   24.7240  -35.6402 C   0  0  0  0  0  0  0  0  0  0  0  0
  -28.0837   25.3091  -34.9886 C   0  0  0  0  0  0  0  0  0  0  0  0
  -24.5093   26.0769  -35.0423 N   0  0  0  0  0  0  0  0  0  0  0  0
  -22.2640   23.9510  -41.5043 C   0  0  0  0  0  0  0  0  0  0  0  0
  -21.7062   23.9085  -42.7436 C   0  0  0  0  0  0  0  0  0  0  0  0
  1  2  3  0
  2  3  1  0
  3  4  2  0
  4  5  1  0
  5  6  2  0
  6  7  1  0
  7  8  1  0
  8  9  2  0
  8 10  1  0
 10 11  1  0
 11 12  1  0
 12 13  2  0
 13 14  1  0
 14 15  2  0
 15 16  1  0
 16 17  1  0
 17 18  2  0
 18 19  1  0
 19 20  2  0
 20 21  1  0
 21 22  2  0
 22 23  1  0
 22 24  1  0
 24 25  2  0
 18 26  1  0
  6 27  1  0
 27 28  2  0
 28  3  1  0
 26 12  1  0
 26 15  1  0
 25 19  1  0
M  END
$$$$
