
     RDKit          3D

 41 44  0  0  0  0  0  0  0  0999 V2000
  -21.9596   18.2644  -22.7013 C   0  0  0  0  0  0  0  0  0  0  0  0
  -22.2837   19.6122  -23.3511 C   0  0  0  0  0  0  0  0  0  0  0  0
  -23.6125   19.6263  -23.8434 N   0  0  0  0  0  0  0  0  0  0  0  0
  -24.5543   19.0581  -22.9736 C   0  0  0  0  0  0  0  0  0  0  0  0
  -25.5148   18.1885  -23.8327 C   0  0  0  0  0  0  0  0  0  0  0  0
  -26.1996   17.1889  -22.9387 C   0  0  0  0  0  0  0  0  0  0  0  0
  -27.5756   17.2051  -23.1882 O   0  0  0  0  0  0  0  0  0  0  0  0
  -28.4377   16.4150  -22.4256 C   0  0  0  0  0  0  0  0  0  0  0  0
  -29.2217   15.4936  -23.0814 C   0  0  0  0  0  0  0  0  0  0  0  0
  -30.1166   14.6695  -22.3881 C   0  0  0  0  0  0  0  0  0  0  0  0
  -30.2414   14.7595  -21.0178 C   0  0  0  0  0  0  0  0  0  0  0  0
  -31.1297   13.9461  -20.3228 C   0  0  0  0  0  0  0  0  0  0  0  0
  -31.9253   12.9679  -20.9500 N   0  0  0  0  0  0  0  0  0  0  0  0
  -32.2424   11.8072  -20.2031 C   0  0  0  0  0  0  0  0  0  0  0  0
  -32.6724   11.6930  -18.8907 C   0  0  0  0  0  0  0  0  0  0  0  0
  -32.8259   10.3401  -18.6209 C   0  0  0  0  0  0  0  0  0  0  0  0
  -33.2726    9.6498  -17.4102 C   0  0  0  0  0  0  0  0  0  0  0  0
  -34.3858    8.6952  -17.7943 C   0  0  0  0  0  0  0  0  0  0  0  0
  -35.0812    8.9874  -18.8046 O   0  0  0  0  0  0  0  0  0  0  0  0
  -34.6458    7.5230  -17.0658 N   0  0  0  0  0  0  0  0  0  0  0  0
  -34.6123    7.3930  -15.6591 C   0  0  0  0  0  0  0  0  0  0  0  0
  -35.5999    6.5909  -15.0651 C   0  0  0  0  0  0  0  0  0  0  0  0
  -35.6728    6.4173  -13.7030 C   0  0  0  0  0  0  0  0  0  0  0  0
  -34.7575    7.0388  -12.8352 C   0  0  0  0  0  0  0  0  0  0  0  0
  -33.7947    7.8216  -13.4154 C   0  0  0  0  0  0  0  0  0  0  0  0
  -32.8729    8.4531  -12.6224 F   0  0  0  0  0  0  0  0  0  0  0  0
  -33.7362    7.9856  -14.8010 C   0  0  0  0  0  0  0  0  0  0  0  0
  -32.4957    9.6872  -19.7557 N   0  0  0  0  0  0  0  0  0  0  0  0
  -32.1520   10.5525  -20.6844 N   0  0  0  0  0  0  0  0  0  0  0  0
  -31.1782   14.1183  -18.9656 N   0  0  0  0  0  0  0  0  0  0  0  0
  -30.4210   15.0135  -18.3270 C   0  0  0  0  0  0  0  0  0  0  0  0
  -29.5601   15.7963  -19.0345 N   0  0  0  0  0  0  0  0  0  0  0  0
  -29.4605   15.6796  -20.3682 C   0  0  0  0  0  0  0  0  0  0  0  0
  -28.5744   16.4938  -21.0624 C   0  0  0  0  0  0  0  0  0  0  0  0
  -23.7072   19.5192  -25.2246 C   0  0  0  0  0  0  0  0  0  0  0  0
  -23.1455   20.6675  -26.0435 C   0  0  0  0  0  0  0  0  0  0  0  0
  -22.7521   20.1797  -27.3051 O   0  0  0  0  0  0  0  0  0  0  0  0
  -23.1325   21.2455  -28.5585 P   0  0  0  0  0  5  0  0  0  0  0  0
  -22.6056   20.7839  -29.8844 O   0  0  0  0  0  0  0  0  0  0  0  0
  -24.8068   21.3867  -28.6548 O   0  0  0  0  0  0  0  0  0  0  0  0
  -22.4959   22.7831  -28.1575 O   0  0  0  0  0  0  0  0  0  0  0  0
  1  2  1  0
  2  3  1  0
  3  4  1  0
  4  5  1  0
  5  6  1  0
  6  7  1  0
  7  8  1  0
  8  9  2  0
  9 10  1  0
 10 11  2  0
 11 12  1  0
 12 13  1  0
 13 14  1  0
 14 15  1  0
 15 16  2  0
 16 17  1  0
 17 18  1  0
 18 19  2  0
 18 20  1  0
 20 21  1  0
 21 22  2  0
 22 23  1  0
 23 24  2  0
 24 25  1  0
 25 26  1  0
 25 27  2  0
 16 28  1  0
 28 29  1  0
 12 30  2  0
 30 31  1  0
 31 32  2  0
 32 33  1  0
 33 34  2  0
  3 35  1  0
 35 36  1  0
 36 37  1  0
 37 38  1  0
 38 39  2  0
 38 40  1  0
 38 41  1  0
 34  8  1  0
 33 11  1  0
 29 14  2  0
 27 21  1  0
M  END
$$$$
