
     RDKit          3D

 18 19  0  0  0  0  0  0  0  0999 V2000
  -31.0659   14.9059  -22.2521 O   0  0  0  0  0  0  0  0  0  0  0  0
  -30.4894   14.3376  -21.2444 C   0  0  0  0  0  0  0  0  0  0  0  0
  -29.1031   14.5946  -21.0282 C   0  0  0  0  0  0  0  0  0  0  0  0
  -28.5489   14.1224  -19.9832 O   0  0  0  0  0  0  0  0  0  0  0  0
  -28.2123   15.3618  -21.8931 C   0  0  0  0  0  0  0  0  0  0  0  0
  -27.7877   14.9568  -23.1254 C   0  0  0  0  0  0  0  0  0  0  0  0
  -26.9245   15.7412  -23.9198 C   0  0  0  0  0  0  0  0  0  0  0  0
  -26.4850   16.9492  -23.4640 C   0  0  0  0  0  0  0  0  0  0  0  0
  -25.3229   17.9719  -24.5690 Br  0  0  0  0  0  0  0  0  0  0  0  0
  -26.8951   17.3879  -22.2233 C   0  0  0  0  0  0  0  0  0  0  0  0
  -27.7348   16.6096  -21.4665 C   0  0  0  0  0  0  0  0  0  0  0  0
  -31.3003   13.4773  -20.4055 C   0  0  0  0  0  0  0  0  0  0  0  0
  -31.6281   12.2113  -20.7190 C   0  0  0  0  0  0  0  0  0  0  0  0
  -32.4140   11.4094  -19.8834 C   0  0  0  0  0  0  0  0  0  0  0  0
  -32.8621   11.9426  -18.7029 C   0  0  0  0  0  0  0  0  0  0  0  0
  -33.9367   10.8817  -17.5350 Br  0  0  0  0  0  0  0  0  0  0  0  0
  -32.5286   13.2360  -18.3800 C   0  0  0  0  0  0  0  0  0  0  0  0
  -31.7718   13.9973  -19.1926 C   0  0  0  0  0  0  0  0  0  0  0  0
  1  2  2  0
  2  3  1  0
  3  4  2  0
  3  5  1  0
  5  6  2  0
  6  7  1  0
  7  8  2  0
  8  9  1  0
  8 10  1  0
 10 11  2  0
  2 12  1  0
 12 13  2  0
 13 14  1  0
 14 15  2  0
 15 16  1  0
 15 17  1  0
 17 18  2  0
 11  5  1  0
 18 12  1  0
M  END
$$$$
