
     RDKit          3D

 54 56  0  0  0  0  0  0  0  0999 V2000
  -25.4696   18.1058  -39.3549 C   0  0  0  0  0  0  0  0  0  0  0  0
  -24.2987   19.0049  -40.3791 S   0  0  0  0  0  0  0  0  0  0  0  0
  -22.5863   18.6605  -39.9048 C   0  0  0  0  0  0  0  0  0  0  0  0
  -21.5866   19.5127  -40.6023 C   0  0  0  0  0  0  0  0  0  0  0  0
  -20.5316   18.6071  -41.2275 C   0  0  2  0  0  0  0  0  0  0  0  0
  -19.7584   17.9751  -40.1549 N   0  0  0  0  0  0  0  0  0  0  0  0
  -18.6100   18.5890  -39.6292 C   0  0  0  0  0  0  0  0  0  0  0  0
  -17.8706   19.2954  -40.4086 O   0  0  0  0  0  0  0  0  0  0  0  0
  -18.2079   18.4546  -38.2107 C   0  0  2  0  0  0  0  0  0  0  0  0
  -17.4610   17.1697  -37.9150 C   0  0  0  0  0  0  0  0  0  0  0  0
  -16.8819   17.0745  -36.5757 C   0  0  0  0  0  0  0  0  0  0  0  0
  -15.8544   17.8496  -36.0845 C   0  0  0  0  0  0  0  0  0  0  0  0
  -15.5591   17.4819  -34.8136 N   0  0  0  0  0  0  0  0  0  0  0  0
  -16.3758   16.4797  -34.4645 C   0  0  0  0  0  0  0  0  0  0  0  0
  -16.4940   15.7450  -33.2927 C   0  0  0  0  0  0  0  0  0  0  0  0
  -17.4250   14.7372  -33.1600 C   0  0  0  0  0  0  0  0  0  0  0  0
  -18.2498   14.4752  -34.2431 C   0  0  0  0  0  0  0  0  0  0  0  0
  -18.1325   15.2051  -35.4076 C   0  0  0  0  0  0  0  0  0  0  0  0
  -17.2068   16.2124  -35.5494 C   0  0  0  0  0  0  0  0  0  0  0  0
  -19.4017   18.5140  -37.3621 N   0  0  0  0  0  0  0  0  0  0  0  0
  -19.3395   18.5898  -35.9496 C   0  0  0  0  0  0  0  0  0  0  0  0
  -18.1951   18.5093  -35.4279 O   0  0  0  0  0  0  0  0  0  0  0  0
  -20.5251   18.7547  -35.0761 C   0  0  0  0  0  0  0  0  0  0  0  0
  -21.2770   20.0016  -35.4754 C   0  0  0  0  0  0  0  0  0  0  0  0
  -22.6328   19.9315  -34.9834 N   0  0  0  0  0  0  0  0  0  0  0  0
  -23.7447   20.5419  -35.6220 C   0  0  0  0  0  0  0  0  0  0  0  0
  -23.6632   20.7927  -36.8479 O   0  0  0  0  0  0  0  0  0  0  0  0
  -24.9103   20.8587  -34.8950 O   0  0  0  0  0  0  0  0  0  0  0  0
  -24.6867   21.6023  -33.7063 C   0  0  0  0  0  0  0  0  0  0  0  0
  -26.0040   21.8421  -33.0034 C   0  0  0  0  0  0  0  0  0  0  0  0
  -24.1145   22.9730  -34.0779 C   0  0  0  0  0  0  0  0  0  0  0  0
  -23.7643   20.9177  -32.7519 C   0  0  0  0  0  0  0  0  0  0  0  0
  -19.6698   19.3361  -42.1661 C   0  0  0  0  0  0  0  0  0  0  0  0
  -19.1482   18.6758  -43.1139 O   0  0  0  0  0  0  0  0  0  0  0  0
  -19.3599   20.7172  -42.1180 N   0  0  0  0  0  0  0  0  0  0  0  0
  -18.5580   21.3950  -43.1004 C   0  0  1  0  0  0  0  0  0  0  0  0
  -18.2851   22.8360  -42.6968 C   0  0  0  0  0  0  0  0  0  0  0  0
  -18.1349   22.8842  -41.2317 C   0  0  0  0  0  0  0  0  0  0  0  0
  -18.1673   21.8154  -40.5816 O   0  0  0  0  0  0  0  0  0  0  0  0
  -17.9584   24.0685  -40.5437 O   0  0  0  0  0  0  0  0  0  0  0  0
  -17.3393   20.6255  -43.3708 C   0  0  0  0  0  0  0  0  0  0  0  0
  -16.7286   20.7588  -44.4737 O   0  0  0  0  0  0  0  0  0  0  0  0
  -16.7656   19.7085  -42.4581 N   0  0  0  0  0  0  0  0  0  0  0  0
  -15.6746   18.8182  -42.8923 C   0  0  1  0  0  0  0  0  0  0  0  0
  -15.5600   17.7868  -41.7806 C   0  0  0  0  0  0  0  0  0  0  0  0
  -14.7989   18.2773  -40.6154 C   0  0  0  0  0  0  0  0  0  0  0  0
  -15.4152   19.2061  -39.8051 C   0  0  0  0  0  0  0  0  0  0  0  0
  -14.7327   19.6864  -38.7074 C   0  0  0  0  0  0  0  0  0  0  0  0
  -13.4480   19.2370  -38.4310 C   0  0  0  0  0  0  0  0  0  0  0  0
  -12.8636   18.3042  -39.2680 C   0  0  0  0  0  0  0  0  0  0  0  0
  -13.5325   17.8216  -40.3593 C   0  0  0  0  0  0  0  0  0  0  0  0
  -16.0189   18.1913  -44.1733 C   0  0  0  0  0  0  0  0  0  0  0  0
  -17.3619   17.8304  -44.4620 N   0  0  0  0  0  0  0  0  0  0  0  0
  -15.1625   17.9475  -45.0555 O   0  0  0  0  0  0  0  0  0  0  0  0
  1  2  1  0
  2  3  1  0
  3  4  1  0
  5  4  1  1
  5  6  1  0
  6  7  1  0
  7  8  2  0
  7  9  1  0
  9 10  1  6
 10 11  1  0
 11 12  2  0
 12 13  1  0
 13 14  1  0
 14 15  2  0
 15 16  1  0
 16 17  2  0
 17 18  1  0
 18 19  2  0
  9 20  1  0
 20 21  1  0
 21 22  2  0
 21 23  1  0
 23 24  1  0
 24 25  1  0
 25 26  1  0
 26 27  2  0
 26 28  1  0
 28 29  1  0
 29 30  1  0
 29 31  1  0
 29 32  1  0
  5 33  1  0
 33 34  2  0
 33 35  1  0
 35 36  1  0
 36 37  1  1
 37 38  1  0
 38 39  2  0
 38 40  1  0
 36 41  1  0
 41 42  2  0
 41 43  1  0
 43 44  1  0
 44 45  1  1
 45 46  1  0
 46 47  2  0
 47 48  1  0
 48 49  2  0
 49 50  1  0
 50 51  2  0
 44 52  1  0
 52 53  1  0
 52 54  2  0
 19 11  1  0
 51 46  1  0
 19 14  1  0
M  END
$$$$
