
     RDKit          3D

 37 40  0  0  0  0  0  0  0  0999 V2000
  -23.3567   16.6916  -35.8007 C   0  0  0  0  0  0  0  0  0  0  0  0
  -21.9033   16.6869  -35.5230 C   0  0  0  0  0  0  0  0  0  0  0  0
  -21.2883   15.4812  -35.1789 C   0  0  0  0  0  0  0  0  0  0  0  0
  -19.9467   15.4336  -34.9074 C   0  0  0  0  0  0  0  0  0  0  0  0
  -19.1429   16.5751  -34.9626 C   0  0  0  0  0  0  0  0  0  0  0  0
  -17.7250   16.4885  -34.6436 C   0  0  0  0  0  0  0  0  0  0  0  0
  -16.9594   16.5939  -35.6597 O   0  0  0  0  0  0  0  0  0  0  0  0
  -17.1888   16.3098  -33.3369 N   0  0  0  0  0  0  0  0  0  0  0  0
  -16.0093   15.5687  -33.1905 C   0  0  0  0  0  0  0  0  0  0  0  0
  -15.8379   14.1692  -33.5693 C   0  0  0  0  0  0  0  0  0  0  0  0
  -14.4715   13.6129  -33.7309 C   0  0  0  0  0  0  0  0  0  0  0  0
  -14.3124   12.5733  -32.7032 N   0  0  0  0  0  0  0  0  0  0  0  0
  -18.0245   16.8079  -32.2426 C   0  0  1  0  0  0  0  0  0  0  0  0
  -18.0218   15.9611  -31.0568 C   0  0  0  0  0  0  0  0  0  0  0  0
  -16.8504   15.8783  -30.3379 N   0  0  0  0  0  0  0  0  0  0  0  0
  -16.6391   15.1595  -29.2636 C   0  0  0  0  0  0  0  0  0  0  0  0
  -15.4081   15.1740  -28.6467 C   0  0  0  0  0  0  0  0  0  0  0  0
  -15.2051   14.4090  -27.5184 C   0  0  0  0  0  0  0  0  0  0  0  0
  -13.6495   14.3975  -26.6989 Cl  0  0  0  0  0  0  0  0  0  0  0  0
  -16.2332   13.6398  -27.0211 C   0  0  0  0  0  0  0  0  0  0  0  0
  -17.4764   13.6269  -27.6467 C   0  0  0  0  0  0  0  0  0  0  0  0
  -17.6609   14.3936  -28.7670 C   0  0  0  0  0  0  0  0  0  0  0  0
  -18.8549   14.4563  -29.4694 C   0  0  0  0  0  0  0  0  0  0  0  0
  -19.7786   13.7378  -28.9924 O   0  0  0  0  0  0  0  0  0  0  0  0
  -19.0114   15.2160  -30.5662 N   0  0  0  0  0  0  0  0  0  0  0  0
  -20.2811   15.2122  -31.2110 C   0  0  0  0  0  0  0  0  0  0  0  0
  -21.0629   16.4400  -31.0300 C   0  0  0  0  0  0  0  0  0  0  0  0
  -21.7830   16.9817  -32.0619 C   0  0  0  0  0  0  0  0  0  0  0  0
  -22.5318   18.1539  -31.8802 C   0  0  0  0  0  0  0  0  0  0  0  0
  -22.5765   18.7977  -30.6836 C   0  0  0  0  0  0  0  0  0  0  0  0
  -21.8630   18.2727  -29.6329 C   0  0  0  0  0  0  0  0  0  0  0  0
  -21.1274   17.1217  -29.8106 C   0  0  0  0  0  0  0  0  0  0  0  0
  -17.3849   18.1712  -31.7983 C   0  0  0  0  0  0  0  0  0  0  0  0
  -18.3130   18.9215  -30.8837 C   0  0  0  0  0  0  0  0  0  0  0  0
  -16.9684   18.9433  -33.0148 C   0  0  0  0  0  0  0  0  0  0  0  0
  -19.7944   17.7440  -35.3077 C   0  0  0  0  0  0  0  0  0  0  0  0
  -21.1349   17.8225  -35.5845 C   0  0  0  0  0  0  0  0  0  0  0  0
  1  2  1  0
  2  3  2  0
  3  4  1  0
  4  5  2  0
  5  6  1  0
  6  7  2  0
  6  8  1  0
  8  9  1  0
  9 10  1  0
 10 11  1  0
 11 12  1  0
  8 13  1  0
 13 14  1  0
 14 15  2  0
 15 16  1  0
 16 17  2  0
 17 18  1  0
 18 19  1  0
 18 20  2  0
 20 21  1  0
 21 22  2  0
 22 23  1  0
 23 24  2  0
 23 25  1  0
 25 26  1  0
 26 27  1  0
 27 28  2  0
 28 29  1  0
 29 30  2  0
 30 31  1  0
 31 32  2  0
 13 33  1  1
 33 34  1  0
 33 35  1  0
  5 36  1  0
 36 37  2  0
 37  2  1  0
 25 14  1  0
 32 27  1  0
 22 16  1  0
M  END
$$$$
