
     RDKit          3D

 21 20  0  0  0  0  0  0  0  0999 V2000
  -31.7448    8.8766  -21.1656 C   0  0  0  0  0  0  0  0  0  0  0  0
  -31.0182    9.8517  -20.3107 C   0  0  0  0  0  0  0  0  0  0  0  0
  -31.6115   11.1412  -20.1611 N   0  0  0  0  0  0  0  0  0  0  0  0
  -30.9422   12.2488  -20.7587 C   0  0  0  0  0  0  0  0  0  0  0  0
  -31.5117   13.0038  -21.7197 N   0  0  0  0  0  0  0  0  0  0  0  0
  -30.9204   14.0378  -22.2982 C   0  0  0  0  0  0  0  0  0  0  0  0
  -31.6142   14.7666  -23.3040 N   0  0  0  0  0  0  0  0  0  0  0  0
  -29.6352   14.3754  -21.8996 C   0  0  0  0  0  0  0  0  0  0  0  0
  -29.0129   15.5109  -22.5522 C   0  0  0  0  0  0  0  0  0  0  0  0
  -29.5948   16.1664  -23.4460 O   0  0  0  0  0  0  0  0  0  0  0  0
  -27.7009   15.8772  -22.1525 N   0  0  0  0  0  0  0  0  0  0  0  0
  -27.0073   16.9772  -22.7359 C   0  0  0  0  0  0  0  0  0  0  0  0
  -27.6146   17.6506  -23.6584 N   0  0  0  0  0  0  0  0  0  0  0  0
  -25.7127   17.3169  -22.3263 N   0  0  0  0  0  0  0  0  0  0  0  0
  -29.0219   13.6542  -20.9444 N   0  0  0  0  0  0  0  0  0  0  0  0
  -29.6672   12.6127  -20.3884 C   0  0  0  0  0  0  0  0  0  0  0  0
  -28.8945   11.6442  -19.1310 Cl  0  0  0  0  0  0  0  0  0  0  0  0
  -32.8306   11.3812  -19.4533 C   0  0  0  0  0  0  0  0  0  0  0  0
  -32.7898   10.9198  -18.0122 C   0  0  0  0  0  0  0  0  0  0  0  0
  -33.9885   10.8496  -20.2309 C   0  0  0  0  0  0  0  0  0  0  0  0
  -30.2130   13.4464  -21.2695 Cl  0  0  0  0  0  0  0  0  0  0  0  0
  1  2  1  0
  2  3  1  0
  3  4  1  0
  4  5  2  0
  5  6  1  0
  6  7  1  0
  6  8  2  0
  8  9  1  0
  9 10  2  0
  9 11  1  0
 11 12  1  0
 12 13  2  0
 12 14  1  0
  8 15  1  0
 15 16  2  0
 16 17  1  0
  3 18  1  0
 18 19  1  0
 18 20  1  0
 16  4  1  0
M  END
$$$$
