
     RDKit          3D

 30 33  0  0  0  0  0  0  0  0999 V2000
  -13.5925   42.0222  -15.0179 C   0  0  0  0  0  0  0  0  0  0  0  0
  -13.4021   42.1100  -16.4156 O   0  0  0  0  0  0  0  0  0  0  0  0
  -14.4926   42.1586  -17.2696 C   0  0  0  0  0  0  0  0  0  0  0  0
  -15.6833   41.5147  -17.0303 C   0  0  0  0  0  0  0  0  0  0  0  0
  -16.7487   41.5842  -17.9018 C   0  0  0  0  0  0  0  0  0  0  0  0
  -16.6651   42.3214  -19.0825 C   0  0  0  0  0  0  0  0  0  0  0  0
  -17.8019   42.3658  -19.9813 C   0  0  0  0  0  0  0  0  0  0  0  0
  -18.5065   43.4671  -20.4132 C   0  0  0  0  0  0  0  0  0  0  0  0
  -18.2533   44.9018  -20.0616 C   0  0  0  0  0  0  0  0  0  0  0  0
  -19.4678   42.9813  -21.2230 N   0  0  0  0  0  0  0  0  0  0  0  0
  -19.3876   41.6807  -21.3047 N   0  0  0  0  0  0  0  0  0  0  0  0
  -20.1216   40.7739  -21.9879 C   0  0  0  0  0  0  0  0  0  0  0  0
  -21.2085   41.2580  -22.7639 N   0  0  0  0  0  0  0  0  0  0  0  0
  -20.9580   42.2702  -23.7505 C   0  0  0  0  0  0  0  0  0  0  0  0
  -21.4035   41.7919  -25.0913 C   0  0  0  0  0  0  0  0  0  0  0  0
  -22.3620   42.6964  -25.6847 N   0  0  0  0  0  0  0  0  0  0  0  0
  -21.6337   43.9063  -26.0337 C   0  0  0  0  0  0  0  0  0  0  0  0
  -22.4392   44.7815  -26.9780 C   0  0  0  0  0  0  0  0  0  0  0  0
  -22.6419   44.1296  -28.2017 O   0  0  0  0  0  0  0  0  0  0  0  0
  -22.3904   42.7700  -28.1015 C   0  0  0  0  0  0  0  0  0  0  0  0
  -22.9637   42.1246  -26.8779 C   0  0  0  0  0  0  0  0  0  0  0  0
  -19.8163   39.4363  -21.9044 C   0  0  0  0  0  0  0  0  0  0  0  0
  -18.7674   38.9798  -21.1315 C   0  0  0  0  0  0  0  0  0  0  0  0
  -18.4482   37.5268  -21.0522 C   0  0  0  0  0  0  0  0  0  0  0  0
  -18.0622   39.9095  -20.4668 N   0  0  0  0  0  0  0  0  0  0  0  0
  -18.3684   41.2318  -20.5533 C   0  0  0  0  0  0  0  0  0  0  0  0
  -15.4775   42.9664  -19.3259 C   0  0  0  0  0  0  0  0  0  0  0  0
  -14.4040   42.8965  -18.4476 C   0  0  0  0  0  0  0  0  0  0  0  0
  -13.2051   43.5462  -18.6932 O   0  0  0  0  0  0  0  0  0  0  0  0
  -13.0337   44.2897  -19.8815 C   0  0  0  0  0  0  0  0  0  0  0  0
  1  2  1  0
  2  3  1  0
  3  4  2  0
  4  5  1  0
  5  6  2  0
  6  7  1  0
  7  8  1  0
  8  9  1  0
  8 10  2  0
 10 11  1  0
 11 12  1  0
 12 13  1  0
 13 14  1  0
 14 15  1  0
 15 16  1  0
 16 17  1  0
 17 18  1  0
 18 19  1  0
 19 20  1  0
 20 21  1  0
 12 22  2  0
 22 23  1  0
 23 24  1  0
 23 25  2  0
 25 26  1  0
  6 27  1  0
 27 28  2  0
 28 29  1  0
 29 30  1  0
 28  3  1  0
 26  7  2  0
 26 11  1  0
 21 16  1  0
M  END
$$$$
