
     RDKit          3D

 15 15  0  0  0  0  0  0  0  0999 V2000
  -16.9937   36.6154  -19.7893 N   0  0  0  0  0  0  0  0  0  0  0  0
  -17.7286   36.3712  -21.3398 S   0  0  0  0  0  6  0  0  0  0  0  0
  -16.6217   35.8502  -22.2478 O   0  0  0  0  0  0  0  0  0  0  0  0
  -18.7531   35.2745  -21.2726 O   0  0  0  0  0  0  0  0  0  0  0  0
  -18.3943   37.8581  -21.9832 C   0  0  0  0  0  0  0  0  0  0  0  0
  -19.6653   37.9087  -22.5336 C   0  0  0  0  0  0  0  0  0  0  0  0
  -20.1985   39.0756  -23.0392 C   0  0  0  0  0  0  0  0  0  0  0  0
  -19.4960   40.2602  -23.0261 C   0  0  0  0  0  0  0  0  0  0  0  0
  -20.0928   41.5005  -23.5753 C   0  0  0  0  0  0  0  0  0  0  0  0
  -20.0711   41.5769  -25.0723 C   0  0  0  0  0  0  0  0  0  0  0  0
  -20.7120   42.8493  -25.4707 C   0  0  0  0  0  0  0  0  0  0  0  0
  -20.0472   43.8804  -25.7082 O   0  0  0  0  0  0  0  0  0  0  0  0
  -22.0869   42.9250  -25.5910 O   0  0  0  0  0  0  0  0  0  0  0  0
  -18.2310   40.2113  -22.4791 C   0  0  0  0  0  0  0  0  0  0  0  0
  -17.6924   39.0457  -21.9715 C   0  0  0  0  0  0  0  0  0  0  0  0
  1  2  1  0
  2  3  2  0
  2  4  2  0
  2  5  1  0
  5  6  2  0
  6  7  1  0
  7  8  2  0
  8  9  1  0
  9 10  1  0
 10 11  1  0
 11 12  2  0
 11 13  1  0
  8 14  1  0
 14 15  2  0
 15  5  1  0
M  END
$$$$
