
     RDKit          3D

 29 31  0  0  0  0  0  0  0  0999 V2000
  -15.7378   47.3553  -19.9459 C   0  0  0  0  0  0  0  0  0  0  0  0
  -16.7833   46.4482  -19.3880 C   0  0  0  0  0  0  0  0  0  0  0  0
  -16.2464   45.8707  -18.0868 C   0  0  0  0  0  0  0  0  0  0  0  0
  -17.2151   45.4005  -20.3216 C   0  0  0  0  0  0  0  0  0  0  0  0
  -16.9322   44.0569  -20.1810 C   0  0  0  0  0  0  0  0  0  0  0  0
  -17.3563   43.1027  -21.0817 C   0  0  0  0  0  0  0  0  0  0  0  0
  -17.0320   41.7710  -20.8721 O   0  0  0  0  0  0  0  0  0  0  0  0
  -17.9370   40.7372  -21.0487 C   0  0  0  0  0  0  0  0  0  0  0  0
  -18.9178   40.4592  -20.1174 C   0  0  0  0  0  0  0  0  0  0  0  0
  -18.9797   41.4672  -18.6903 Cl  0  0  0  0  0  0  0  0  0  0  0  0
  -19.7957   39.4216  -20.3358 C   0  0  0  0  0  0  0  0  0  0  0  0
  -19.7477   38.6233  -21.4644 C   0  0  0  0  0  0  0  0  0  0  0  0
  -20.6741   37.5480  -21.6716 N   0  0  0  0  0  0  0  0  0  0  0  0
  -20.2883   36.2825  -21.7540 N   0  0  0  0  0  0  0  0  0  0  0  0
  -21.2039   35.2941  -21.9502 C   0  0  0  0  0  0  0  0  0  0  0  0
  -20.8114   33.9192  -22.0426 C   0  0  0  0  0  0  0  0  0  0  0  0
  -20.4804   32.8165  -22.1294 N   0  0  0  0  0  0  0  0  0  0  0  0
  -22.5244   35.6659  -22.0568 C   0  0  0  0  0  0  0  0  0  0  0  0
  -23.3959   34.7728  -22.2388 O   0  0  0  0  0  0  0  0  0  0  0  0
  -22.8980   36.9347  -21.9728 N   0  0  0  0  0  0  0  0  0  0  0  0
  -21.9620   37.8849  -21.7780 C   0  0  0  0  0  0  0  0  0  0  0  0
  -22.3233   39.0947  -21.6984 O   0  0  0  0  0  0  0  0  0  0  0  0
  -18.7609   38.9092  -22.3932 C   0  0  0  0  0  0  0  0  0  0  0  0
  -17.8635   39.9583  -22.1853 C   0  0  0  0  0  0  0  0  0  0  0  0
  -16.6141   40.2986  -23.3898 Cl  0  0  0  0  0  0  0  0  0  0  0  0
  -18.0753   43.5298  -22.1335 N   0  0  0  0  0  0  0  0  0  0  0  0
  -18.3545   44.8115  -22.2824 N   0  0  0  0  0  0  0  0  0  0  0  0
  -17.9602   45.7719  -21.4280 C   0  0  0  0  0  0  0  0  0  0  0  0
  -18.2784   46.9541  -21.6623 O   0  0  0  0  0  0  0  0  0  0  0  0
  1  2  1  0
  2  3  1  0
  2  4  1  0
  4  5  2  0
  5  6  1  0
  6  7  1  0
  7  8  1  0
  8  9  2  0
  9 10  1  0
  9 11  1  0
 11 12  2  0
 12 13  1  0
 13 14  1  0
 14 15  2  0
 15 16  1  0
 16 17  3  0
 15 18  1  0
 18 19  2  0
 18 20  1  0
 20 21  1  0
 21 22  2  0
 12 23  1  0
 23 24  2  0
 24 25  1  0
  6 26  2  0
 26 27  1  0
 27 28  1  0
 28 29  2  0
 28  4  1  0
 24  8  1  0
 21 13  1  0
M  END
$$$$
