
     RDKit          3D

 14 14  0  0  0  0  0  0  0  0999 V2000
  -16.7555   31.5802  -27.1938 C   0  0  0  0  0  0  0  0  0  0  0  0
  -16.9061   31.7972  -25.6813 C   0  0  0  0  0  0  0  0  0  0  0  0
  -17.7547   32.9977  -25.4131 C   0  0  0  0  0  0  0  0  0  0  0  0
  -18.4961   32.9160  -24.0851 C   0  0  0  0  0  0  0  0  0  0  0  0
  -18.1299   34.0142  -23.1563 C   0  0  0  0  0  0  0  0  0  0  0  0
  -19.0099   34.1889  -21.9725 C   0  0  0  0  0  0  0  0  0  0  0  0
  -19.3210   35.5579  -21.5736 C   0  0  0  0  0  0  0  0  0  0  0  0
  -18.2701   36.3438  -21.0806 C   0  0  0  0  0  0  0  0  0  0  0  0
  -18.4494   37.6421  -20.7070 C   0  0  0  0  0  0  0  0  0  0  0  0
  -19.7198   38.1686  -20.8311 C   0  0  0  0  0  0  0  0  0  0  0  0
  -19.9002   39.4850  -20.4525 O   0  0  0  0  0  0  0  0  0  0  0  0
  -20.7814   37.4361  -21.3090 C   0  0  0  0  0  0  0  0  0  0  0  0
  -20.5671   36.1208  -21.6795 C   0  0  0  0  0  0  0  0  0  0  0  0
  -21.6635   35.3778  -22.1640 O   0  0  0  0  0  0  0  0  0  0  0  0
  1  2  1  0
  2  3  1  0
  3  4  1  0
  4  5  1  0
  5  6  1  0
  6  7  1  0
  7  8  2  0
  8  9  1  0
  9 10  2  0
 10 11  1  0
 10 12  1  0
 12 13  2  0
 13 14  1  0
 13  7  1  0
M  END
$$$$
