
     RDKit          3D

  5  4  0  0  0  0  0  0  0  0999 V2000
  -11.1175    9.9362  -26.6952 C   0  0  0  0  0  0  0  0  0  0  0  0
  -11.8296   11.2177  -26.9246 C   0  0  0  0  0  0  0  0  0  0  0  0
  -11.2358   12.0471  -27.9514 N   0  0  0  0  0  0  0  0  0  0  0  0
  -10.2461   12.9565  -27.4368 C   0  0  0  0  0  0  0  0  0  0  0  0
  -12.2485   12.7157  -28.7311 C   0  0  0  0  0  0  0  0  0  0  0  0
  1  2  1  0
  2  3  1  0
  3  4  1  0
  3  5  1  0
M  END
$$$$
