
     RDKit          3D

 22 22  0  0  0  0  0  0  0  0999 V2000
  -20.1561   39.8117  -22.4360 Br  0  0  0  0  0  0  0  0  0  0  0  0
  -15.3247   34.5971  -21.1386 C   0  0  0  0  0  0  0  0  0  0  0  0
  -16.6746   34.2956  -20.9236 O   0  0  0  0  0  0  0  0  0  0  0  0
  -17.6866   35.1861  -21.2232 C   0  0  0  0  0  0  0  0  0  0  0  0
  -17.4351   36.4333  -21.7548 C   0  0  0  0  0  0  0  0  0  0  0  0
  -18.4333   37.3093  -22.0494 C   0  0  0  0  0  0  0  0  0  0  0  0
  -19.7613   36.9536  -21.8135 C   0  0  0  0  0  0  0  0  0  0  0  0
  -20.8256   37.8957  -22.1309 C   0  0  0  0  0  0  0  0  0  0  0  0
  -22.1410   37.5935  -21.9179 C   0  0  0  0  0  0  0  0  0  0  0  0
  -23.0811   38.5725  -22.2589 C   0  0  0  0  0  0  0  0  0  0  0  0
  -22.6430   39.7742  -22.7842 C   0  0  0  0  0  0  0  0  0  0  0  0
  -23.4837   40.6861  -23.1042 N   0  0  0  0  0  0  0  0  0  0  0  0
  -21.3401   40.0403  -22.9814 N   0  0  0  0  0  0  0  0  0  0  0  0
  -20.9555   41.2988  -23.5266 C   0  0  0  0  0  0  0  0  0  0  0  0
  -20.7021   42.3703  -22.5145 C   0  0  0  0  0  0  0  0  0  0  0  0
  -20.3053   43.6307  -23.2943 C   0  0  0  0  0  0  0  0  0  0  0  0
  -20.0320   44.7557  -22.3667 C   0  0  0  0  0  0  0  0  0  0  0  0
  -20.1169   44.6750  -21.1247 O   0  0  0  0  0  0  0  0  0  0  0  0
  -19.6617   45.9624  -22.9212 O   0  0  0  0  0  0  0  0  0  0  0  0
  -20.4704   39.1039  -22.6533 N   0  0  0  0  0  0  0  0  0  0  0  0
  -20.0179   35.7123  -21.2840 C   0  0  0  0  0  0  0  0  0  0  0  0
  -18.9990   34.8041  -20.9776 C   0  0  0  0  0  0  0  0  0  0  0  0
  2  3  1  0
  3  4  1  0
  4  5  2  0
  5  6  1  0
  6  7  2  0
  7  8  1  0
  8  9  1  0
  9 10  2  0
 10 11  1  0
 11 12  2  0
 11 13  1  0
 13 14  1  0
 14 15  1  0
 15 16  1  0
 16 17  1  0
 17 18  2  0
 17 19  1  0
 13 20  1  0
  7 21  1  0
 21 22  2  0
 22  4  1  0
 20  8  2  0
M  END
$$$$
