
     RDKit          3D

 35 38  0  0  0  0  0  0  0  0999 V2000
  -18.5616   49.0468  -20.7681 C   0  0  0  0  0  0  0  0  0  0  0  0
  -17.6693   49.0002  -21.8920 N   0  0  0  0  0  0  0  0  0  0  0  0
  -16.6501   47.9673  -21.7305 C   0  0  0  0  0  0  0  0  0  0  0  0
  -17.2965   46.5758  -21.6631 C   0  0  0  0  0  0  0  0  0  0  0  0
  -18.6401   46.7188  -22.0720 N   0  0  0  0  0  0  0  0  0  0  0  0
  -19.6155   45.8629  -21.5396 C   0  0  0  0  0  0  0  0  0  0  0  0
  -19.1911   44.5127  -21.1647 C   0  0  0  0  0  0  0  0  0  0  0  0
  -19.1028   43.4570  -22.0388 C   0  0  0  0  0  0  0  0  0  0  0  0
  -18.6872   42.1755  -21.6263 C   0  0  0  0  0  0  0  0  0  0  0  0
  -18.3483   41.9128  -20.3338 C   0  0  0  0  0  0  0  0  0  0  0  0
  -17.8998   40.6610  -19.8396 N   0  0  0  0  0  0  0  0  0  0  0  0
  -18.1754   39.4308  -20.4322 C   0  0  0  0  0  0  0  0  0  0  0  0
  -17.6714   38.2874  -19.9913 N   0  0  0  0  0  0  0  0  0  0  0  0
  -17.9520   37.1073  -20.5704 C   0  0  0  0  0  0  0  0  0  0  0  0
  -18.8013   37.1100  -21.6667 C   0  0  0  0  0  0  0  0  0  0  0  0
  -19.2015   35.6191  -22.4587 Cl  0  0  0  0  0  0  0  0  0  0  0  0
  -19.3580   38.2936  -22.1683 C   0  0  0  0  0  0  0  0  0  0  0  0
  -20.2186   38.2361  -23.2712 N   0  0  0  0  0  0  0  0  0  0  0  0
  -20.5172   39.2877  -24.1538 C   0  0  0  0  0  0  0  0  0  0  0  0
  -19.6125   40.1941  -24.6653 C   0  0  0  0  0  0  0  0  0  0  0  0
  -19.9563   41.2289  -25.5270 C   0  0  0  0  0  0  0  0  0  0  0  0
  -21.2547   41.3931  -25.9144 C   0  0  0  0  0  0  0  0  0  0  0  0
  -22.2031   40.5109  -25.4302 C   0  0  0  0  0  0  0  0  0  0  0  0
  -21.8488   39.4782  -24.5690 C   0  0  0  0  0  0  0  0  0  0  0  0
  -23.0592   38.3798  -23.9520 S   0  0  0  0  0  6  0  0  0  0  0  0
  -24.4406   38.9665  -24.0470 O   0  0  0  0  0  0  0  0  0  0  0  0
  -22.7536   38.1291  -22.4828 O   0  0  0  0  0  0  0  0  0  0  0  0
  -22.9435   36.8849  -24.7719 N   0  0  0  0  0  0  0  0  0  0  0  0
  -23.5259   35.8250  -24.0079 C   0  0  0  0  0  0  0  0  0  0  0  0
  -23.4738   37.0324  -26.1063 C   0  0  0  0  0  0  0  0  0  0  0  0
  -19.0059   39.3961  -21.5114 N   0  0  0  0  0  0  0  0  0  0  0  0
  -18.4407   42.9997  -19.4386 C   0  0  0  0  0  0  0  0  0  0  0  0
  -18.8476   44.2399  -19.8586 C   0  0  0  0  0  0  0  0  0  0  0  0
  -18.8992   47.3986  -23.2822 C   0  0  0  0  0  0  0  0  0  0  0  0
  -18.4377   48.8512  -23.0936 C   0  0  0  0  0  0  0  0  0  0  0  0
  1  2  1  0
  2  3  1  0
  3  4  1  0
  4  5  1  0
  5  6  1  0
  6  7  1  0
  7  8  2  0
  8  9  1  0
  9 10  2  0
 10 11  1  0
 11 12  1  0
 12 13  2  0
 13 14  1  0
 14 15  2  0
 15 16  1  0
 15 17  1  0
 17 18  1  0
 18 19  1  0
 19 20  2  0
 20 21  1  0
 21 22  2  0
 22 23  1  0
 23 24  2  0
 24 25  1  0
 25 26  2  0
 25 27  2  0
 25 28  1  0
 28 29  1  0
 28 30  1  0
 17 31  2  0
 10 32  1  0
 32 33  2  0
  5 34  1  0
 34 35  1  0
 35  2  1  0
 33  7  1  0
 31 12  1  0
 24 19  1  0
M  END
$$$$
