
     RDKit          3D

 19 22  0  0  0  0  0  0  0  0999 V2000
  -28.3506   15.1606  -23.7069 C   0  0  0  0  0  0  0  0  0  0  0  0
  -28.7682   14.2143  -22.6366 C   0  0  0  0  0  0  0  0  0  0  0  0
  -29.9491   14.0215  -22.1149 O   0  0  0  0  0  0  0  0  0  0  0  0
  -29.9250   13.0881  -21.1800 C   0  0  0  0  0  0  0  0  0  0  0  0
  -30.8931   12.5366  -20.3555 C   0  0  0  0  0  0  0  0  0  0  0  0
  -30.6131   11.5484  -19.4362 C   0  0  0  0  0  0  0  0  0  0  0  0
  -31.5690   11.0408  -18.6593 O   0  0  0  0  0  0  0  0  0  0  0  0
  -31.3095   10.1024  -17.7845 C   0  0  0  0  0  0  0  0  0  0  0  0
  -32.2363    9.6299  -17.0511 O   0  0  0  0  0  0  0  0  0  0  0  0
  -30.0404    9.5787  -17.6078 C   0  0  0  0  0  0  0  0  0  0  0  0
  -29.0471   10.0993  -18.4081 C   0  0  0  0  0  0  0  0  0  0  0  0
  -29.3243   11.0862  -19.3269 C   0  0  0  0  0  0  0  0  0  0  0  0
  -28.3417   11.6269  -20.1446 C   0  0  0  0  0  0  0  0  0  0  0  0
  -28.6294   12.6152  -21.0619 C   0  0  0  0  0  0  0  0  0  0  0  0
  -27.9100   13.3382  -21.9906 C   0  0  0  0  0  0  0  0  0  0  0  0
  -26.4532   13.1757  -22.2302 C   0  0  0  0  0  0  0  0  0  0  0  0
  -27.7507    9.4467  -18.1104 C   0  0  0  0  0  0  0  0  0  0  0  0
  -27.9911    8.8336  -16.7575 C   0  0  0  0  0  0  0  0  0  0  0  0
  -29.4772    8.5293  -16.7041 C   0  0  0  0  0  0  0  0  0  0  0  0
  1  2  1  0
  2  3  1  0
  3  4  1  0
  4  5  2  0
  5  6  1  0
  6  7  1  0
  7  8  1  0
  8  9  2  0
  8 10  1  0
 10 11  2  0
 11 12  1  0
 12 13  1  0
 13 14  2  0
 14 15  1  0
 15 16  1  0
 11 17  1  0
 17 18  1  0
 18 19  1  0
 15  2  2  0
 14  4  1  0
 12  6  2  0
 19 10  1  0
M  END
$$$$
