
     RDKit          3D

 18 19  0  0  0  0  0  0  0  0999 V2000
  -21.0459   14.6666  -33.8185 C   0  0  0  0  0  0  0  0  0  0  0  0
  -21.1413   14.7005  -32.3702 N   0  0  0  0  0  0  0  0  0  0  0  0
  -19.9311   14.1914  -31.7518 C   0  0  0  0  0  0  0  0  0  0  0  0
  -19.2109   15.2752  -30.9741 C   0  0  0  0  0  0  0  0  0  0  0  0
  -18.0967   14.6885  -30.3219 N   0  0  0  0  0  0  0  0  0  0  0  0
  -17.2359   15.5633  -29.5984 C   0  0  0  0  0  0  0  0  0  0  0  0
  -16.6965   14.7411  -28.4269 C   0  0  0  0  0  0  0  0  0  0  0  0
  -15.8833   13.6298  -28.9887 C   0  0  0  0  0  0  0  0  0  0  0  0
  -14.5271   13.7316  -28.7212 O   0  0  0  0  0  0  0  0  0  0  0  0
  -13.7332   12.9048  -29.4854 C   0  0  0  0  0  0  0  0  0  0  0  0
  -12.7604   12.2625  -28.5409 C   0  0  0  0  0  0  0  0  0  0  0  0
  -12.2040   11.0285  -28.8359 C   0  0  0  0  0  0  0  0  0  0  0  0
  -11.3113   10.4235  -27.9847 C   0  0  0  0  0  0  0  0  0  0  0  0
  -10.9331   11.0163  -26.8068 C   0  0  0  0  0  0  0  0  0  0  0  0
  -11.4764   12.2470  -26.4938 C   0  0  0  0  0  0  0  0  0  0  0  0
  -12.3711   12.8401  -27.3591 C   0  0  0  0  0  0  0  0  0  0  0  0
  -16.0468   13.3881  -30.4599 C   0  0  0  0  0  0  0  0  0  0  0  0
  -17.4143   13.6462  -30.9975 C   0  0  0  0  0  0  0  0  0  0  0  0
  1  2  1  0
  2  3  1  0
  3  4  1  0
  4  5  1  0
  5  6  1  0
  6  7  1  0
  7  8  1  0
  8  9  1  0
  9 10  1  0
 10 11  1  0
 11 12  2  0
 12 13  1  0
 13 14  2  0
 14 15  1  0
 15 16  2  0
  8 17  1  0
 17 18  1  0
 18  5  1  0
 16 11  1  0
M  END
$$$$
