
     RDKit          3D

 23 25  0  0  0  0  0  0  0  0999 V2000
  -27.0211   46.3220  -19.3964 O   0  0  0  0  0  0  0  0  0  0  0  0
  -28.1970   45.5148  -18.9057 S   0  0  0  0  0  6  0  0  0  0  0  0
  -28.3342   44.3593  -19.8185 O   0  0  0  0  0  0  0  0  0  0  0  0
  -29.5758   46.4840  -18.7052 N   0  0  0  0  0  0  0  0  0  0  0  0
  -29.3889   47.6992  -17.9901 C   0  0  0  0  0  0  0  0  0  0  0  0
  -30.8163   48.3493  -17.9791 C   0  0  0  0  0  0  0  0  0  0  0  0
  -30.6890   49.5832  -17.1385 C   0  0  0  0  0  0  0  0  0  0  0  0
  -29.2649   50.0375  -16.9315 C   0  0  0  0  0  0  0  0  0  0  0  0
  -28.5270   48.9914  -16.1317 C   0  0  0  0  0  0  0  0  0  0  0  0
  -29.0175   47.6102  -16.5638 C   0  0  0  0  0  0  0  0  0  0  0  0
  -28.1415   46.5706  -16.1592 N   0  0  0  0  0  0  0  0  0  0  0  0
  -28.8494   45.7214  -15.2043 C   0  0  0  0  0  0  0  0  0  0  0  0
  -27.9123   44.7220  -14.5675 C   0  0  0  0  0  0  0  0  0  0  0  0
  -26.7214   44.5965  -15.2320 O   0  0  0  0  0  0  0  0  0  0  0  0
  -26.0265   45.7693  -15.4221 C   0  0  0  0  0  0  0  0  0  0  0  0
  -26.8783   46.9913  -15.5950 C   0  0  0  0  0  0  0  0  0  0  0  0
  -27.8027   44.8346  -17.3158 C   0  0  0  0  0  0  0  0  0  0  0  0
  -26.8073   45.3793  -16.5334 C   0  0  0  0  0  0  0  0  0  0  0  0
  -26.5227   44.8211  -15.2927 C   0  0  0  0  0  0  0  0  0  0  0  0
  -27.2107   43.7278  -14.8122 C   0  0  0  0  0  0  0  0  0  0  0  0
  -26.8457   43.0399  -13.2606 Cl  0  0  0  0  0  0  0  0  0  0  0  0
  -28.2116   43.1891  -15.6115 C   0  0  0  0  0  0  0  0  0  0  0  0
  -28.5001   43.7459  -16.8564 C   0  0  0  0  0  0  0  0  0  0  0  0
  1  2  2  0
  2  3  2  0
  2  4  1  0
  4  5  1  0
  5  6  1  0
  6  7  1  0
  7  8  1  0
  8  9  1  0
  9 10  1  0
 10 11  1  0
 11 12  1  0
 12 13  1  0
 13 14  1  0
 14 15  1  0
 15 16  1  0
  2 17  1  0
 17 18  2  0
 18 19  1  0
 19 20  2  0
 20 21  1  0
 20 22  1  0
 22 23  2  0
 10  5  1  0
 16 11  1  0
 23 17  1  0
M  END
$$$$
