
     RDKit          3D

 22 22  0  0  0  0  0  0  0  0999 V2000
  -34.9583   10.9407  -14.4570 C   0  0  0  0  0  0  0  0  0  0  0  0
  -34.2984    9.6376  -14.7036 C   0  0  0  0  0  0  0  0  0  0  0  0
  -34.0443    9.1193  -15.8737 C   0  0  0  0  0  0  0  0  0  0  0  0
  -34.3576    9.7179  -17.1272 C   0  0  0  0  0  0  0  0  0  0  0  0
  -33.6623   10.4753  -17.9119 C   0  0  0  0  0  0  0  0  0  0  0  0
  -34.2783   10.9644  -19.1701 C   0  0  0  0  0  0  0  0  0  0  0  0
  -35.5019   10.3321  -19.6685 C   0  0  0  0  0  0  0  0  0  0  0  0
  -33.7079   11.9507  -19.7942 C   0  0  0  0  0  0  0  0  0  0  0  0
  -32.3962   11.8720  -20.4052 C   0  0  0  0  0  0  0  0  0  0  0  0
  -31.8886   12.8982  -21.0268 C   0  0  0  0  0  0  0  0  0  0  0  0
  -30.5847   12.9869  -21.6116 C   0  0  0  0  0  0  0  0  0  0  0  0
  -29.8520   11.8227  -22.1136 C   0  0  0  0  0  0  0  0  0  0  0  0
  -29.9499   14.1642  -21.7357 C   0  0  0  0  0  0  0  0  0  0  0  0
  -28.6635   14.2776  -22.3874 C   0  0  0  0  0  0  0  0  0  0  0  0
  -28.0925   15.4202  -22.3242 O   0  0  0  0  0  0  0  0  0  0  0  0
  -27.9846   13.3100  -23.0628 O   0  0  0  0  0  0  0  0  0  0  0  0
  -33.3699    7.7661  -15.8497 C   0  0  0  0  0  0  0  0  0  0  0  0
  -33.4470    7.1590  -17.2326 C   0  0  0  0  0  0  0  0  0  0  0  0
  -31.9382    7.8246  -15.4580 C   0  0  0  0  0  0  0  0  0  0  0  0
  -34.1501    6.7956  -14.9481 C   0  0  0  0  0  0  0  0  0  0  0  0
  -34.3320    7.4041  -13.5745 C   0  0  0  0  0  0  0  0  0  0  0  0
  -33.8569    8.8146  -13.5187 C   0  0  0  0  0  0  0  0  0  0  0  0
  1  2  1  0
  2  3  2  0
  3  4  1  0
  4  5  2  0
  5  6  1  0
  6  7  1  0
  6  8  2  0
  8  9  1  0
  9 10  2  0
 10 11  1  0
 11 12  1  0
 11 13  2  0
 13 14  1  0
 14 15  2  0
 14 16  1  0
  3 17  1  0
 17 18  1  0
 17 19  1  0
 17 20  1  0
 20 21  1  0
 21 22  1  0
 22  2  1  0
M  END
$$$$
