
     RDKit          3D

 42 47  0  0  0  0  0  0  0  0999 V2000
  -20.5003   19.6956  -36.0066 Cl  0  0  0  0  0  0  0  0  0  0  0  0
  -20.4827   18.2040  -34.9647 O   0  0  0  0  0  0  0  0  0  0  0  0
  -20.6834   18.9274  -33.9647 C   0  0  0  0  0  0  0  0  0  0  0  0
  -20.1889   18.4172  -32.6434 C   0  0  0  0  0  0  0  0  0  0  0  0
  -19.5492   17.1483  -32.7579 N   0  0  0  0  0  0  0  0  0  0  0  0
  -20.3449   15.9353  -32.6289 C   0  0  0  0  0  0  0  0  0  0  0  0
  -21.5179   15.9955  -32.2092 O   0  0  0  0  0  0  0  0  0  0  0  0
  -19.7815   14.6260  -32.9900 C   0  0  0  0  0  0  0  0  0  0  0  0
  -19.3757   13.9439  -31.6760 C   0  0  0  0  0  0  0  0  0  0  0  0
  -19.8793   12.5365  -31.7668 C   0  0  0  0  0  0  0  0  0  0  0  0
  -20.8993   12.4724  -32.8562 C   0  0  0  0  0  0  0  0  0  0  0  0
  -20.9101   13.7911  -33.5562 C   0  0  0  0  0  0  0  0  0  0  0  0
  -18.6334   14.6465  -33.8228 N   0  0  0  0  0  0  0  0  0  0  0  0
  -18.1005   15.9188  -34.1811 C   0  0  0  0  0  0  0  0  0  0  0  0
  -18.1617   16.8741  -33.0072 C   0  0  1  0  0  0  0  0  0  0  0  0
  -17.2817   18.0351  -33.1302 C   0  0  0  0  0  0  0  0  0  0  0  0
  -17.1076   18.9335  -32.1137 C   0  0  0  0  0  0  0  0  0  0  0  0
  -16.2695   20.0404  -32.2914 C   0  0  0  0  0  0  0  0  0  0  0  0
  -16.0754   20.9521  -31.3020 F   0  0  0  0  0  0  0  0  0  0  0  0
  -15.6032   20.2539  -33.4808 C   0  0  0  0  0  0  0  0  0  0  0  0
  -15.7795   19.3495  -34.4995 C   0  0  0  0  0  0  0  0  0  0  0  0
  -15.1176   19.5738  -35.6616 F   0  0  0  0  0  0  0  0  0  0  0  0
  -16.6096   18.2632  -34.3089 C   0  0  0  0  0  0  0  0  0  0  0  0
  -21.3456   20.1530  -34.1197 N   0  0  0  0  0  0  0  0  0  0  0  0
  -21.8230   20.6586  -35.3549 C   0  0  0  0  0  0  0  0  0  0  0  0
  -23.1013   20.3552  -35.7664 C   0  0  0  0  0  0  0  0  0  0  0  0
  -23.6066   20.8323  -36.9721 C   0  0  0  0  0  0  0  0  0  0  0  0
  -22.7916   21.6226  -37.7526 C   0  0  0  0  0  0  0  0  0  0  0  0
  -21.5076   21.9488  -37.3769 C   0  0  0  0  0  0  0  0  0  0  0  0
  -21.0456   21.4516  -36.1679 C   0  0  0  0  0  0  0  0  0  0  0  0
  -20.8939   22.8187  -38.4429 C   0  0  0  0  0  0  0  0  0  0  0  0
  -22.1259   23.4328  -39.0688 C   0  0  1  0  0  0  0  0  0  0  0  0
  -23.0802   22.2540  -39.0695 C   0  0  0  0  0  0  0  0  0  0  0  0
  -22.6705   24.5484  -38.2570 C   0  0  0  0  0  0  0  0  0  0  0  0
  -22.9949   24.4598  -37.0559 O   0  0  0  0  0  0  0  0  0  0  0  0
  -22.7340   25.6820  -39.1182 N   0  0  0  0  0  0  0  0  0  0  0  0
  -22.2592   25.3159  -40.4026 C   0  0  0  0  0  0  0  0  0  0  0  0
  -22.1493   26.0845  -41.5117 N   0  0  0  0  0  0  0  0  0  0  0  0
  -21.6740   25.5795  -42.6645 C   0  0  0  0  0  0  0  0  0  0  0  0
  -21.3043   24.2506  -42.6701 C   0  0  0  0  0  0  0  0  0  0  0  0
  -21.4042   23.4406  -41.5562 C   0  0  0  0  0  0  0  0  0  0  0  0
  -21.8928   23.9893  -40.3990 C   0  0  0  0  0  0  0  0  0  0  0  0
  2  3  2  0
  3  4  1  0
  4  5  1  0
  5  6  1  0
  6  7  2  0
  6  8  1  0
  8  9  1  0
  9 10  1  0
 10 11  1  0
 11 12  1  0
  8 13  1  0
 13 14  1  0
 14 15  1  0
 15 16  1  6
 16 17  2  0
 17 18  1  0
 18 19  1  0
 18 20  2  0
 20 21  1  0
 21 22  1  0
 21 23  2  0
  3 24  1  0
 24 25  1  0
 25 26  2  0
 26 27  1  0
 27 28  2  0
 28 29  1  0
 29 30  2  0
 29 31  1  0
 32 31  1  1
 32 33  1  0
 32 34  1  0
 34 35  2  0
 34 36  1  0
 36 37  1  0
 37 38  2  0
 38 39  1  0
 39 40  2  0
 40 41  1  0
 41 42  2  0
 15  5  1  0
 23 16  1  0
 30 25  1  0
 42 32  1  0
 12  8  1  0
 33 28  1  0
 42 37  1  0
M  END
$$$$
