
     RDKit          3D

 33 37  0  0  0  0  0  0  0  0999 V2000
  -14.6290   24.0768  -47.6506 N   0  0  0  0  0  0  0  0  0  0  0  0
  -15.0613   23.5011  -46.7917 C   0  0  0  0  0  0  0  0  0  0  0  0
  -15.6361   22.7635  -45.6517 C   0  0  0  0  0  0  0  0  0  0  0  0
  -15.0153   22.4010  -44.4909 C   0  0  0  0  0  0  0  0  0  0  0  0
  -15.8699   21.6957  -43.6652 C   0  0  0  0  0  0  0  0  0  0  0  0
  -15.7613   21.1045  -42.4306 C   0  0  0  0  0  0  0  0  0  0  0  0
  -16.8150   20.4215  -41.8164 C   0  0  0  0  0  0  0  0  0  0  0  0
  -16.6137   19.7815  -40.4863 C   0  0  0  0  0  0  0  0  0  0  0  0
  -16.8493   18.3751  -40.4521 N   0  0  0  0  0  0  0  0  0  0  0  0
  -15.7735   17.6525  -39.8701 C   0  0  0  0  0  0  0  0  0  0  0  0
  -16.2891   16.8133  -38.6654 C   0  0  0  0  0  0  0  0  0  0  0  0
  -16.9315   17.8403  -37.7548 C   0  0  0  0  0  0  0  0  0  0  0  0
  -17.1678   17.3508  -36.4131 N   0  0  0  0  0  0  0  0  0  0  0  0
  -18.1286   18.0200  -35.5694 C   0  0  0  0  0  0  0  0  0  0  0  0
  -17.7008   18.9237  -34.7071 N   0  0  0  0  0  0  0  0  0  0  0  0
  -18.4764   19.6253  -33.8434 C   0  0  0  0  0  0  0  0  0  0  0  0
  -19.8147   19.3369  -33.9100 N   0  0  0  0  0  0  0  0  0  0  0  0
  -20.2758   18.4411  -34.7584 C   0  0  0  0  0  0  0  0  0  0  0  0
  -21.9379   17.8016  -35.1655 S   0  0  0  0  0  0  0  0  0  0  0  0
  -21.4461   16.6440  -36.4666 C   0  0  0  0  0  0  0  0  0  0  0  0
  -22.4499   15.8813  -37.1077 C   0  0  0  0  0  0  0  0  0  0  0  0
  -23.7148   15.8017  -36.2920 C   0  0  0  0  0  0  0  0  0  0  0  0
  -23.3276   15.1746  -35.0939 F   0  0  0  0  0  0  0  0  0  0  0  0
  -24.7182   15.0690  -36.8277 F   0  0  0  0  0  0  0  0  0  0  0  0
  -24.1588   17.0618  -35.8937 F   0  0  0  0  0  0  0  0  0  0  0  0
  -20.1161   16.8426  -36.4707 C   0  0  0  0  0  0  0  0  0  0  0  0
  -19.5094   17.6963  -35.6653 C   0  0  0  0  0  0  0  0  0  0  0  0
  -18.2607   18.1664  -38.4273 C   0  0  0  0  0  0  0  0  0  0  0  0
  -18.1515   18.1174  -39.9113 C   0  0  0  0  0  0  0  0  0  0  0  0
  -17.9881   20.3741  -42.5278 C   0  0  0  0  0  0  0  0  0  0  0  0
  -18.1182   20.9658  -43.7779 C   0  0  0  0  0  0  0  0  0  0  0  0
  -17.0664   21.6340  -44.3668 C   0  0  0  0  0  0  0  0  0  0  0  0
  -16.8881   22.2836  -45.5502 N   0  0  0  0  0  0  0  0  0  0  0  0
  1  2  3  0
  2  3  1  0
  3  4  2  0
  4  5  1  0
  5  6  2  0
  6  7  1  0
  7  8  1  0
  8  9  1  0
  9 10  1  0
 10 11  1  0
 11 12  1  0
 12 13  1  0
 13 14  1  0
 14 15  2  0
 15 16  1  0
 16 17  2  0
 17 18  1  0
 18 19  1  0
 19 20  1  0
 20 21  1  0
 21 22  1  0
 22 23  1  0
 22 24  1  0
 22 25  1  0
 20 26  2  0
 26 27  1  0
 12 28  1  0
 28 29  1  0
  7 30  2  0
 30 31  1  0
 31 32  2  0
 32 33  1  0
 33  3  1  0
 32  5  1  0
 29  9  1  0
 27 14  1  0
 27 18  2  0
M  END
$$$$
