
     RDKit          3D

 35 35  0  0  0  0  0  0  0  0999 V2000
  -12.8181   20.5333  -27.9029 C   0  0  0  0  0  0  0  0  0  0  0  0
  -13.6834   19.4180  -28.4773 C   0  0  0  0  0  0  0  0  0  0  0  0
  -14.7172   20.0599  -29.3716 C   0  0  0  0  0  0  0  0  0  0  0  0
  -15.4945   19.0088  -30.0982 C   0  0  0  0  0  0  0  0  0  0  0  0
  -16.4403   19.5604  -31.1101 C   0  0  0  0  0  0  0  0  0  0  0  0
  -17.1204   18.5143  -31.9339 C   0  0  0  0  0  0  0  0  0  0  0  0
  -18.1416   19.0106  -32.8910 C   0  0  0  0  0  0  0  0  0  0  0  0
  -17.6885   19.0912  -34.3276 C   0  0  0  0  0  0  0  0  0  0  0  0
  -17.9678   17.8033  -35.0730 C   0  0  0  0  0  0  0  0  0  0  0  0
  -18.7334   18.0235  -36.3276 C   0  0  0  0  0  0  0  0  0  0  0  0
  -17.7468   18.6036  -37.3686 C   0  0  0  0  0  0  0  0  0  0  0  0
  -18.4432   18.7358  -38.6930 C   0  0  1  0  0  0  0  0  0  0  0  0
  -18.4038   20.1213  -39.1981 C   0  0  0  0  0  0  0  0  0  0  0  0
  -18.8026   20.2922  -40.6099 C   0  0  2  0  0  0  0  0  0  0  0  0
  -18.0163   19.6917  -41.6155 O   0  0  0  0  0  0  0  0  0  0  0  0
  -18.3193   20.7660  -42.4313 C   0  0  0  0  0  0  0  0  0  0  0  0
  -18.4266   20.9221  -43.6595 O   0  0  0  0  0  0  0  0  0  0  0  0
  -18.4466   21.5917  -41.2057 C   0  0  1  0  0  0  0  0  0  0  0  0
  -19.5171   22.6628  -41.2905 C   0  0  0  0  0  0  0  0  0  0  0  0
  -20.8560   22.1258  -41.6304 C   0  0  0  0  0  0  0  0  0  0  0  0
  -21.9032   23.1939  -41.5281 C   0  0  0  0  0  0  0  0  0  0  0  0
  -21.6585   24.2317  -42.5908 C   0  0  0  0  0  0  0  0  0  0  0  0
  -22.6965   25.3451  -42.5248 C   0  0  0  0  0  0  0  0  0  0  0  0
  -22.1603   26.4347  -43.4515 C   0  0  0  0  0  0  0  0  0  0  0  0
  -17.8111   17.8736  -39.6452 O   0  0  0  0  0  0  0  0  0  0  0  0
  -16.4497   17.7774  -39.6832 C   0  0  0  0  0  0  0  0  0  0  0  0
  -15.7431   18.7162  -39.2185 O   0  0  0  0  0  0  0  0  0  0  0  0
  -15.8059   16.5544  -40.2813 C   0  0  2  0  0  0  0  0  0  0  0  0
  -14.6319   17.0803  -41.0617 C   0  0  0  0  0  0  0  0  0  0  0  0
  -14.9248   18.1034  -42.0911 C   0  0  0  0  0  0  0  0  0  0  0  0
  -14.6495   19.5175  -41.6566 C   0  0  0  0  0  0  0  0  0  0  0  0
  -14.0006   17.7940  -43.2839 C   0  0  0  0  0  0  0  0  0  0  0  0
  -16.8041   15.9498  -41.1269 N   0  0  0  0  0  0  0  0  0  0  0  0
  -18.1306   15.6981  -40.7106 C   0  0  0  0  0  0  0  0  0  0  0  0
  -18.6398   16.3650  -39.7784 O   0  0  0  0  0  0  0  0  0  0  0  0
  1  2  1  0
  2  3  1  0
  3  4  1  0
  4  5  1  0
  5  6  1  0
  6  7  1  0
  7  8  1  0
  8  9  1  0
  9 10  1  0
 10 11  1  0
 12 11  1  1
 12 13  1  0
 14 13  1  1
 14 15  1  0
 15 16  1  0
 16 17  2  0
 16 18  1  0
 18 19  1  6
 19 20  1  0
 20 21  1  0
 21 22  1  0
 22 23  1  0
 23 24  1  0
 12 25  1  0
 25 26  1  0
 26 27  2  0
 26 28  1  0
 28 29  1  6
 29 30  1  0
 30 31  1  0
 30 32  1  0
 28 33  1  0
 33 34  1  0
 34 35  2  0
 18 14  1  0
M  END
$$$$
