
     RDKit          3D

 37 39  0  0  0  0  0  0  0  0999 V2000
  -12.8533    1.4832  -32.4074 C   0  0  0  0  0  0  0  0  0  0  0  0
  -14.0672    1.1896  -31.5243 C   0  0  0  0  0  0  0  0  0  0  0  0
  -15.0401    0.3864  -32.3764 C   0  0  1  0  0  0  0  0  0  0  0  0
  -14.4293   -0.8751  -32.8354 C   0  0  0  0  0  0  0  0  0  0  0  0
  -15.0492   -2.0996  -32.4008 N   0  0  0  0  0  0  0  0  0  0  0  0
  -14.0503   -3.1430  -32.5237 C   0  0  0  0  0  0  0  0  0  0  0  0
  -13.5937   -3.6670  -31.1542 C   0  0  0  0  0  0  0  0  0  0  0  0
  -14.8522   -4.1527  -30.5226 C   0  0  0  0  0  0  0  0  0  0  0  0
  -15.0167   -5.4139  -29.9922 C   0  0  0  0  0  0  0  0  0  0  0  0
  -16.2447   -5.7747  -29.4254 C   0  0  0  0  0  0  0  0  0  0  0  0
  -16.4217   -7.0405  -28.8889 O   0  0  0  0  0  0  0  0  0  0  0  0
  -15.3401   -7.9501  -28.9280 C   0  0  0  0  0  0  0  0  0  0  0  0
  -17.2709   -4.8296  -29.4188 C   0  0  0  0  0  0  0  0  0  0  0  0
  -18.4605   -5.2181  -28.8552 O   0  0  0  0  0  0  0  0  0  0  0  0
  -19.6187   -4.4460  -28.7346 C   0  0  0  0  0  0  0  0  0  0  0  0
  -17.1230   -3.5624  -29.9455 C   0  0  0  0  0  0  0  0  0  0  0  0
  -15.8888   -3.2418  -30.4994 C   0  0  0  0  0  0  0  0  0  0  0  0
  -15.5814   -1.9270  -31.0958 C   0  0  2  0  0  0  0  0  0  0  0  0
  -16.7692   -1.0198  -31.1686 C   0  0  0  0  0  0  0  0  0  0  0  0
  -16.4075    0.2776  -31.7791 C   0  0  2  0  0  0  0  0  0  0  0  0
  -17.5041    0.7844  -32.6387 C   0  0  0  0  0  0  0  0  0  0  0  0
  -17.7306    0.1932  -33.9539 C   0  0  1  0  0  0  0  0  0  0  0  0
  -18.0453   -1.2291  -33.9825 N   0  0  0  0  0  0  0  0  0  0  0  0
  -17.9980   -1.6984  -35.3477 C   0  0  0  0  0  0  0  0  0  0  0  0
  -18.3648   -0.7081  -36.3921 C   0  0  0  0  0  0  0  0  0  0  0  0
  -19.2330    0.3616  -35.8425 C   0  0  0  0  0  0  0  0  0  0  0  0
  -20.3204    0.8967  -36.5096 C   0  0  0  0  0  0  0  0  0  0  0  0
  -21.1055    1.9068  -35.9527 C   0  0  0  0  0  0  0  0  0  0  0  0
  -22.1974    2.4347  -36.6378 O   0  0  0  0  0  0  0  0  0  0  0  0
  -22.4822    1.9139  -37.9121 C   0  0  0  0  0  0  0  0  0  0  0  0
  -20.7564    2.3612  -34.6957 C   0  0  0  0  0  0  0  0  0  0  0  0
  -21.5130    3.3556  -34.1241 O   0  0  0  0  0  0  0  0  0  0  0  0
  -21.2433    3.8951  -32.8399 C   0  0  0  0  0  0  0  0  0  0  0  0
  -19.6624    1.8347  -34.0044 C   0  0  0  0  0  0  0  0  0  0  0  0
  -18.9130    0.8401  -34.5866 C   0  0  0  0  0  0  0  0  0  0  0  0
  -17.5503   -0.7181  -33.0421 Cl  0  0  0  0  0  0  0  0  0  0  0  0
  -17.5474   -0.7219  -33.0384 Cl  0  0  0  0  0  0  0  0  0  0  0  0
  1  2  1  0
  3  2  1  1
  3  4  1  0
  4  5  1  0
  5  6  1  0
  6  7  1  0
  7  8  1  0
  8  9  2  0
  9 10  1  0
 10 11  1  0
 11 12  1  0
 10 13  2  0
 13 14  1  0
 14 15  1  0
 13 16  1  0
 16 17  2  0
 17 18  1  0
 18 19  1  6
 19 20  1  0
 20 21  1  6
 22 21  1  1
 22 23  1  0
 23 24  1  0
 24 25  1  0
 25 26  1  0
 26 27  2  0
 27 28  1  0
 28 29  1  0
 29 30  1  0
 28 31  2  0
 31 32  1  0
 32 33  1  0
 31 34  1  0
 34 35  2  0
 20  3  1  0
 35 22  1  0
 18  5  1  0
 35 26  1  0
 17  8  1  0
M  END
$$$$
