
     RDKit          3D

 29 32  0  0  0  0  0  0  0  0999 V2000
  -14.7279   17.4930  -34.3325 C   0  0  0  0  0  0  0  0  0  0  0  0
  -16.2089   17.4567  -34.2625 C   0  0  0  0  0  0  0  0  0  0  0  0
  -16.9677   16.9623  -35.3123 C   0  0  0  0  0  0  0  0  0  0  0  0
  -18.3000   16.9378  -35.2302 N   0  0  0  0  0  0  0  0  0  0  0  0
  -19.0026   17.3587  -34.1961 C   0  0  0  0  0  0  0  0  0  0  0  0
  -20.4432   17.3518  -34.0619 C   0  0  0  0  0  0  0  0  0  0  0  0
  -21.1131   18.5687  -33.9539 C   0  0  0  0  0  0  0  0  0  0  0  0
  -22.4877   18.6277  -33.8101 C   0  0  0  0  0  0  0  0  0  0  0  0
  -23.2278   17.4744  -33.7705 C   0  0  0  0  0  0  0  0  0  0  0  0
  -22.5795   16.2626  -33.8765 C   0  0  0  0  0  0  0  0  0  0  0  0
  -21.1757   16.2198  -34.0233 C   0  0  0  0  0  0  0  0  0  0  0  0
  -20.5739   14.8960  -34.1557 C   0  0  0  0  0  0  0  0  0  0  0  0
  -21.4120   13.8986  -33.3832 C   0  0  0  0  0  0  0  0  0  0  0  0
  -20.6423   14.4039  -35.6152 C   0  0  0  0  0  0  0  0  0  0  0  0
  -18.2448   17.8469  -33.1602 N   0  0  0  0  0  0  0  0  0  0  0  0
  -16.9105   17.9043  -33.1680 C   0  0  0  0  0  0  0  0  0  0  0  0
  -16.2090   18.4343  -32.0329 N   0  0  0  0  0  0  0  0  0  0  0  0
  -16.7337   18.2990  -30.6889 C   0  0  0  0  0  0  0  0  0  0  0  0
  -17.8677   19.2290  -30.4506 C   0  0  0  0  0  0  0  0  0  0  0  0
  -17.7689   20.5894  -30.6483 C   0  0  0  0  0  0  0  0  0  0  0  0
  -18.8160   21.4568  -30.4304 C   0  0  0  0  0  0  0  0  0  0  0  0
  -20.0362   20.9854  -29.9945 C   0  0  0  0  0  0  0  0  0  0  0  0
  -21.1343   21.8678  -29.7635 N   0  0  0  0  0  0  0  0  0  0  0  0
  -21.5668   22.8858  -30.5192 C   0  0  0  0  0  0  0  0  0  0  0  0
  -22.6614   23.4607  -29.9045 C   0  0  0  0  0  0  0  0  0  0  0  0
  -22.8545   22.7576  -28.7801 N   0  0  0  0  0  0  0  0  0  0  0  0
  -21.9239   21.8019  -28.7131 N   0  0  0  0  0  0  0  0  0  0  0  0
  -20.1581   19.6250  -29.7896 C   0  0  0  0  0  0  0  0  0  0  0  0
  -19.1008   18.7695  -30.0120 C   0  0  0  0  0  0  0  0  0  0  0  0
  1  2  1  0
  2  3  2  0
  3  4  1  0
  4  5  2  0
  5  6  1  0
  6  7  2  0
  7  8  1  0
  8  9  2  0
  9 10  1  0
 10 11  2  0
 11 12  1  0
 12 13  1  0
 12 14  1  0
  5 15  1  0
 15 16  2  0
 16 17  1  0
 17 18  1  0
 18 19  1  0
 19 20  2  0
 20 21  1  0
 21 22  2  0
 22 23  1  0
 23 24  1  0
 24 25  2  0
 25 26  1  0
 26 27  2  0
 22 28  1  0
 28 29  2  0
 16  2  1  0
 29 19  1  0
 11  6  1  0
 27 23  1  0
M  END
$$$$
