
     RDKit          3D

 20 21  0  0  0  0  0  0  0  0999 V2000
  -19.2680   33.6794  -21.7245 C   0  0  0  0  0  0  0  0  0  0  0  0
  -19.4941   35.0747  -22.2582 C   0  0  1  0  0  0  0  0  0  0  0  0
  -20.6426   35.7689  -21.5764 C   0  0  0  0  0  0  0  0  0  0  0  0
  -21.9061   35.4548  -22.3378 C   0  0  0  0  0  0  0  0  0  0  0  0
  -22.8973   36.5421  -22.3687 C   0  0  0  0  0  0  0  0  0  0  0  0
  -22.4517   37.9123  -21.9009 C   0  0  0  0  0  0  0  0  0  0  0  0
  -21.5836   38.7634  -22.3359 C   0  0  0  0  0  0  0  0  0  0  0  0
  -21.1203   40.1204  -21.8974 C   0  0  2  0  0  0  0  0  0  0  0  0
  -22.1115   41.2386  -21.9525 C   0  0  0  0  0  0  0  0  0  0  0  0
  -21.3181   42.5187  -22.0464 C   0  0  2  0  0  0  0  0  0  0  0  0
  -21.8176   43.3073  -23.0678 O   0  0  0  0  0  0  0  0  0  0  0  0
  -19.9085   42.0857  -22.3931 C   0  0  0  0  0  0  0  0  0  0  0  0
  -20.0606   40.6758  -22.8395 C   0  0  1  0  0  0  0  0  0  0  0  0
  -18.7700   39.8755  -22.8473 C   0  0  2  0  0  0  0  0  0  0  0  0
  -18.7570   39.1983  -24.0204 O   0  0  0  0  0  0  0  0  0  0  0  0
  -18.4711   39.1960  -21.5669 C   0  0  0  0  0  0  0  0  0  0  0  0
  -18.1027   38.0786  -21.0706 C   0  0  0  0  0  0  0  0  0  0  0  0
  -17.7353   36.7291  -21.5167 C   0  0  0  0  0  0  0  0  0  0  0  0
  -16.5841   36.2746  -21.0594 O   0  0  0  0  0  0  0  0  0  0  0  0
  -18.3555   35.8456  -22.3192 O   0  0  0  0  0  0  0  0  0  0  0  0
  2  1  1  1
  2  3  1  0
  3  4  1  0
  4  5  1  0
  5  6  1  0
  6  7  2  0
  7  8  1  0
  8  9  1  6
  9 10  1  0
 10 11  1  6
 10 12  1  0
 13 12  1  1
 13 14  1  0
 14 15  1  6
 14 16  1  0
 16 17  2  0
 17 18  1  0
 18 19  2  0
 18 20  1  0
 20  2  1  0
 13  8  1  0
M  END
$$$$
