
     RDKit          3D

 18 20  0  0  0  0  0  0  0  0999 V2000
  -16.6326   12.9969  -28.4330 O   0  0  0  0  0  0  0  0  0  0  0  0
  -15.6592   13.1575  -29.2120 C   0  0  0  0  0  0  0  0  0  0  0  0
  -14.5702   12.1700  -29.3067 C   0  0  0  0  0  0  0  0  0  0  0  0
  -13.4632   12.6352  -28.4000 C   0  0  0  0  0  0  0  0  0  0  0  0
  -12.1618   12.9259  -28.7172 C   0  0  0  0  0  0  0  0  0  0  0  0
  -11.3390   13.3238  -27.7580 C   0  0  0  0  0  0  0  0  0  0  0  0
  -11.8088   13.4376  -26.4587 C   0  0  0  0  0  0  0  0  0  0  0  0
  -13.5395   12.9334  -26.6742 S   0  0  0  0  0  0  0  0  0  0  0  0
  -15.6316   14.3311  -30.0122 N   0  0  0  0  0  0  0  0  0  0  0  0
  -16.7073   15.2550  -30.1029 C   0  0  0  0  0  0  0  0  0  0  0  0
  -16.9979   16.3603  -30.4716 N   0  0  0  0  0  0  0  0  0  0  0  0
  -18.1457   16.9691  -30.4168 C   0  0  0  0  0  0  0  0  0  0  0  0
  -18.4759   18.2513  -30.8463 C   0  0  0  0  0  0  0  0  0  0  0  0
  -19.7397   18.7295  -30.7087 C   0  0  0  0  0  0  0  0  0  0  0  0
  -20.7720   18.0296  -30.1575 C   0  0  0  0  0  0  0  0  0  0  0  0
  -20.4700   16.7466  -29.7203 C   0  0  0  0  0  0  0  0  0  0  0  0
  -19.1932   16.2413  -29.8505 C   0  0  0  0  0  0  0  0  0  0  0  0
  -18.3982   14.7190  -29.4457 S   0  0  0  0  0  0  0  0  0  0  0  0
  1  2  2  0
  2  3  1  0
  3  4  1  0
  4  5  2  0
  5  6  1  0
  6  7  2  0
  7  8  1  0
  2  9  1  0
  9 10  1  0
 10 11  2  0
 11 12  1  0
 12 13  2  0
 13 14  1  0
 14 15  2  0
 15 16  1  0
 16 17  2  0
 17 18  1  0
  8  4  1  0
 18 10  1  0
 17 12  1  0
M  END
$$$$
