
     RDKit          3D

 17 18  0  0  0  0  0  0  0  0999 V2000
  -17.1722   -2.5245  -30.9557 C   0  0  0  0  0  0  0  0  0  0  0  0
  -15.7678   -2.8721  -31.4653 C   0  0  0  0  0  0  0  0  0  0  0  0
  -15.3788   -4.1782  -30.8799 C   0  0  0  0  0  0  0  0  0  0  0  0
  -14.8401   -1.7470  -31.2816 C   0  0  0  0  0  0  0  0  0  0  0  0
  -14.7249   -1.2651  -30.1108 O   0  0  0  0  0  0  0  0  0  0  0  0
  -14.0499   -1.1328  -32.3194 C   0  0  0  0  0  0  0  0  0  0  0  0
  -13.6532    0.1532  -32.3994 C   0  0  0  0  0  0  0  0  0  0  0  0
  -13.9132    1.3766  -31.6142 C   0  0  0  0  0  0  0  0  0  0  0  0
  -12.6264    1.8814  -30.9576 C   0  0  0  0  0  0  0  0  0  0  0  0
  -14.5082    2.5108  -32.3443 C   0  0  0  0  0  0  0  0  0  0  0  0
  -12.8808    0.2360  -33.5250 N   0  0  0  0  0  0  0  0  0  0  0  0
  -12.8083   -0.9424  -34.1092 N   0  0  0  0  0  0  0  0  0  0  0  0
  -12.1877   -1.4022  -35.2258 C   0  0  0  0  0  0  0  0  0  0  0  0
  -12.2465   -2.7024  -35.6611 C   0  0  0  0  0  0  0  0  0  0  0  0
  -12.9723   -3.6181  -34.9407 C   0  0  0  0  0  0  0  0  0  0  0  0
  -13.6126   -3.1644  -33.7969 C   0  0  0  0  0  0  0  0  0  0  0  0
  -13.5140   -1.8429  -33.4126 C   0  0  0  0  0  0  0  0  0  0  0  0
  1  2  1  0
  2  3  1  0
  2  4  1  0
  4  5  2  0
  4  6  1  0
  6  7  1  0
  7  8  1  0
  8  9  1  0
  8 10  1  0
  7 11  2  0
 11 12  1  0
 12 13  1  0
 13 14  2  0
 14 15  1  0
 15 16  2  0
 16 17  1  0
 17  6  2  0
 17 12  1  0
M  END
$$$$
