
     RDKit          3D

 24 25  0  0  0  0  0  0  0  0999 V2000
  -21.7533   44.0860  -24.0231 C   0  0  0  0  0  0  0  0  0  0  0  0
  -20.5174   44.0673  -24.8255 C   0  0  0  0  0  0  0  0  0  0  0  0
  -20.3668   45.3754  -25.6251 C   0  0  0  0  0  0  0  0  0  0  0  0
  -19.2731   43.5119  -24.3040 C   0  0  0  0  0  0  0  0  0  0  0  0
  -18.9665   42.0985  -24.1868 C   0  0  0  0  0  0  0  0  0  0  0  0
  -18.2054   41.3858  -25.2315 C   0  0  0  0  0  0  0  0  0  0  0  0
  -18.4480   41.7055  -22.8372 C   0  0  0  0  0  0  0  0  0  0  0  0
  -17.5449   42.6886  -21.7186 S   0  0  0  0  0  0  0  0  0  0  0  0
  -17.4027   41.4652  -20.4145 C   0  0  0  0  0  0  0  0  0  0  0  0
  -18.0600   40.3949  -20.9389 C   0  0  0  0  0  0  0  0  0  0  0  0
  -18.5910   40.5056  -22.1673 C   0  0  0  0  0  0  0  0  0  0  0  0
  -19.2898   39.3424  -22.7594 N   0  0  0  0  0  0  0  0  0  0  0  0
  -19.0073   38.0554  -22.2415 C   0  0  0  0  0  0  0  0  0  0  0  0
  -18.1938   37.9971  -21.2579 O   0  0  0  0  0  0  0  0  0  0  0  0
  -19.5471   36.8151  -22.7091 C   0  0  0  0  0  0  0  0  0  0  0  0
  -20.5018   36.6339  -23.6631 C   0  0  0  0  0  0  0  0  0  0  0  0
  -20.7037   35.3015  -23.8233 N   0  0  0  0  0  0  0  0  0  0  0  0
  -21.6088   34.6281  -24.7247 C   0  0  0  0  0  0  0  0  0  0  0  0
  -19.9059   34.6275  -22.9939 N   0  0  0  0  0  0  0  0  0  0  0  0
  -19.1867   35.5271  -22.3001 C   0  0  0  0  0  0  0  0  0  0  0  0
  -18.1840   35.1688  -21.2641 C   0  0  0  0  0  0  0  0  0  0  0  0
  -18.5891   35.6201  -20.0247 F   0  0  0  0  0  0  0  0  0  0  0  0
  -17.8543   33.8253  -21.2743 F   0  0  0  0  0  0  0  0  0  0  0  0
  -16.9913   35.8428  -21.5275 F   0  0  0  0  0  0  0  0  0  0  0  0
  1  2  1  0
  2  3  1  0
  2  4  1  0
  4  5  1  0
  5  6  1  0
  5  7  1  0
  7  8  1  0
  8  9  1  0
  9 10  2  0
 10 11  1  0
 11 12  1  0
 12 13  1  0
 13 14  2  0
 13 15  1  0
 15 16  2  0
 16 17  1  0
 17 18  1  0
 17 19  1  0
 19 20  2  0
 20 21  1  0
 21 22  1  0
 21 23  1  0
 21 24  1  0
 11  7  2  0
 20 15  1  0
M  END
$$$$
