
     RDKit          3D

 49 55  0  0  0  0  0  0  0  0999 V2000
  -22.6301   56.7912  -11.8825 C   0  0  0  0  0  0  0  0  0  0  0  0
  -22.8326   55.6018  -12.7882 C   0  0  0  0  0  0  0  0  0  0  0  0
  -21.6527   54.6385  -12.7258 C   0  0  0  0  0  0  0  0  0  0  0  0
  -22.0070   53.4837  -11.8133 C   0  0  0  0  0  0  0  0  0  0  0  0
  -21.4991   54.1230  -14.0994 N   0  0  0  0  0  0  0  0  0  0  0  0
  -21.9558   54.6753  -15.2080 N   0  0  0  0  0  0  0  0  0  0  0  0
  -21.6026   53.8943  -16.2433 C   0  0  0  0  0  0  0  0  0  0  0  0
  -20.9125   52.8273  -15.8094 N   0  0  0  0  0  0  0  0  0  0  0  0
  -20.3532   51.7616  -16.5524 C   0  0  0  0  0  0  0  0  0  0  0  0
  -20.2014   51.8502  -17.9179 C   0  0  0  0  0  0  0  0  0  0  0  0
  -19.6605   50.8084  -18.6595 C   0  0  0  0  0  0  0  0  0  0  0  0
  -19.2626   49.6493  -18.0114 C   0  0  0  0  0  0  0  0  0  0  0  0
  -18.7373   48.6138  -18.8007 N   0  0  0  0  0  0  0  0  0  0  0  0
  -18.8291   48.6868  -20.2567 C   0  0  0  0  0  0  0  0  0  0  0  0
  -18.5778   47.4102  -20.9730 C   0  0  0  0  0  0  0  0  0  0  0  0
  -18.5838   46.2151  -20.1937 N   0  0  0  0  0  0  0  0  0  0  0  0
  -18.2829   44.9403  -20.8123 C   0  0  0  0  0  0  0  0  0  0  0  0
  -17.9722   43.8559  -20.0381 C   0  0  0  0  0  0  0  0  0  0  0  0
  -17.6700   42.6129  -20.6077 C   0  0  0  0  0  0  0  0  0  0  0  0
  -17.6737   42.4361  -21.9674 C   0  0  0  0  0  0  0  0  0  0  0  0
  -17.3776   41.2070  -22.5634 O   0  0  0  0  0  0  0  0  0  0  0  0
  -18.4098   40.5169  -23.2512 C   0  0  0  0  0  0  0  0  0  0  0  0
  -18.4631   39.0554  -22.9482 C   0  0  1  0  0  0  0  0  0  0  0  0
  -17.8589   38.7358  -21.6222 C   0  0  0  0  0  0  0  0  0  0  0  0
  -18.8445   38.1238  -20.9022 O   0  0  0  0  0  0  0  0  0  0  0  0
  -19.8552   37.7228  -21.8547 C   0  0  2  0  0  0  0  0  0  0  0  0
  -21.0978   37.9613  -21.0257 C   0  0  0  0  0  0  0  0  0  0  0  0
  -22.3602   38.0662  -21.6329 N   0  0  0  0  0  0  0  0  0  0  0  0
  -22.9851   39.2088  -21.9900 C   0  0  0  0  0  0  0  0  0  0  0  0
  -24.1782   38.8738  -22.4852 N   0  0  0  0  0  0  0  0  0  0  0  0
  -24.3407   37.5443  -22.4573 C   0  0  0  0  0  0  0  0  0  0  0  0
  -23.2052   37.0632  -21.9268 N   0  0  0  0  0  0  0  0  0  0  0  0
  -19.6057   36.3052  -22.1976 C   0  0  0  0  0  0  0  0  0  0  0  0
  -19.2405   35.4307  -21.1738 C   0  0  0  0  0  0  0  0  0  0  0  0
  -19.0970   34.1043  -21.4313 C   0  0  0  0  0  0  0  0  0  0  0  0
  -19.3134   33.6242  -22.7077 C   0  0  0  0  0  0  0  0  0  0  0  0
  -19.1333   31.9200  -23.0361 Cl  0  0  0  0  0  0  0  0  0  0  0  0
  -19.6729   34.4588  -23.7402 C   0  0  0  0  0  0  0  0  0  0  0  0
  -19.8138   35.8262  -23.4525 C   0  0  0  0  0  0  0  0  0  0  0  0
  -20.1488   36.8786  -24.8260 Cl  0  0  0  0  0  0  0  0  0  0  0  0
  -19.7628   38.5513  -22.9133 O   0  0  0  0  0  0  0  0  0  0  0  0
  -17.9859   43.5294  -22.7362 C   0  0  0  0  0  0  0  0  0  0  0  0
  -18.2900   44.7766  -22.1802 C   0  0  0  0  0  0  0  0  0  0  0  0
  -18.8906   46.2681  -18.7828 C   0  0  0  0  0  0  0  0  0  0  0  0
  -18.1007   47.4684  -18.2140 C   0  0  0  0  0  0  0  0  0  0  0  0
  -19.4012   49.5350  -16.6630 C   0  0  0  0  0  0  0  0  0  0  0  0
  -19.9504   50.6026  -15.9377 C   0  0  0  0  0  0  0  0  0  0  0  0
  -20.8649   52.9993  -14.4644 C   0  0  0  0  0  0  0  0  0  0  0  0
  -20.2970   52.2023  -13.6711 O   0  0  0  0  0  0  0  0  0  0  0  0
  1  2  1  0
  2  3  1  0
  3  4  1  0
  3  5  1  0
  5  6  1  0
  6  7  2  0
  7  8  1  0
  8  9  1  0
  9 10  2  0
 10 11  1  0
 11 12  2  0
 12 13  1  0
 13 14  1  0
 14 15  1  0
 15 16  1  0
 16 17  1  0
 17 18  2  0
 18 19  1  0
 19 20  2  0
 20 21  1  0
 21 22  1  0
 23 22  1  1
 23 24  1  0
 24 25  1  0
 25 26  1  0
 26 27  1  1
 27 28  1  0
 28 29  1  0
 29 30  2  0
 30 31  1  0
 31 32  2  0
 26 33  1  0
 33 34  2  0
 34 35  1  0
 35 36  2  0
 36 37  1  0
 36 38  1  0
 38 39  2  0
 39 40  1  0
 26 41  1  0
 20 42  1  0
 42 43  2  0
 16 44  1  0
 44 45  1  0
 12 46  1  0
 46 47  2  0
  8 48  1  0
 48 49  2  0
 48  5  1  0
 47  9  1  0
 45 13  1  0
 43 17  1  0
 41 23  1  0
 32 28  1  0
 39 33  1  0
M  END
$$$$
