
     RDKit          3D

 32 36  0  0  0  0  0  0  0  0999 V2000
  -16.6522   42.2114  -20.2764 C   0  0  0  0  0  0  0  0  0  0  0  0
  -17.9341   41.6075  -20.3629 O   0  0  0  0  0  0  0  0  0  0  0  0
  -18.5086   41.4654  -21.6143 C   0  0  0  0  0  0  0  0  0  0  0  0
  -18.8893   42.5411  -22.3805 C   0  0  0  0  0  0  0  0  0  0  0  0
  -19.4638   42.4126  -23.6311 C   0  0  0  0  0  0  0  0  0  0  0  0
  -19.8531   43.5502  -24.4092 N   0  0  0  0  0  0  0  0  0  0  0  0
  -21.0707   43.4373  -25.1841 C   0  0  0  0  0  0  0  0  0  0  0  0
  -21.1306   44.5268  -26.2528 C   0  0  0  0  0  0  0  0  0  0  0  0
  -20.9092   45.8420  -25.5825 C   0  0  0  0  0  0  0  0  0  0  0  0
  -20.9750   46.8819  -26.6214 N   0  0  0  0  0  0  0  0  0  0  0  0
  -19.5764   45.9579  -24.9228 C   0  0  0  0  0  0  0  0  0  0  0  0
  -19.0144   44.7018  -24.3591 C   0  0  0  0  0  0  0  0  0  0  0  0
  -19.6461   41.1316  -24.0949 C   0  0  0  0  0  0  0  0  0  0  0  0
  -19.2740   40.0032  -23.3504 C   0  0  0  0  0  0  0  0  0  0  0  0
  -18.7082   40.1675  -22.1165 C   0  0  0  0  0  0  0  0  0  0  0  0
  -18.3087   39.0896  -21.3140 N   0  0  0  0  0  0  0  0  0  0  0  0
  -18.8083   37.7780  -21.3864 C   0  0  0  0  0  0  0  0  0  0  0  0
  -18.6265   36.8182  -20.4857 N   0  0  0  0  0  0  0  0  0  0  0  0
  -19.1216   35.5881  -20.5987 C   0  0  0  0  0  0  0  0  0  0  0  0
  -19.8834   35.3000  -21.7493 C   0  0  0  0  0  0  0  0  0  0  0  0
  -20.5066   33.7011  -21.8599 Cl  0  0  0  0  0  0  0  0  0  0  0  0
  -20.0982   36.2528  -22.7032 C   0  0  0  0  0  0  0  0  0  0  0  0
  -20.8806   36.0342  -23.9299 C   0  0  0  0  0  0  0  0  0  0  0  0
  -21.3704   34.8763  -24.4695 C   0  0  0  0  0  0  0  0  0  0  0  0
  -22.0453   35.1331  -25.6285 N   0  0  0  0  0  0  0  0  0  0  0  0
  -21.9813   36.4562  -25.8210 C   0  0  0  0  0  0  0  0  0  0  0  0
  -22.5091   37.2414  -26.8582 C   0  0  0  0  0  0  0  0  0  0  0  0
  -22.3019   38.5783  -26.8199 C   0  0  0  0  0  0  0  0  0  0  0  0
  -21.5979   39.1778  -25.8054 C   0  0  0  0  0  0  0  0  0  0  0  0
  -21.0689   38.4256  -24.7737 C   0  0  0  0  0  0  0  0  0  0  0  0
  -21.2766   37.0579  -24.8059 C   0  0  0  0  0  0  0  0  0  0  0  0
  -19.5541   37.4523  -22.4863 N   0  0  0  0  0  0  0  0  0  0  0  0
  1  2  1  0
  2  3  1  0
  3  4  2  0
  4  5  1  0
  5  6  1  0
  6  7  1  0
  7  8  1  0
  8  9  1  0
  9 10  1  0
  9 11  1  0
 11 12  1  0
  5 13  2  0
 13 14  1  0
 14 15  2  0
 15 16  1  0
 16 17  1  0
 17 18  2  0
 18 19  1  0
 19 20  2  0
 20 21  1  0
 20 22  1  0
 22 23  1  0
 23 24  2  0
 24 25  1  0
 25 26  1  0
 26 27  2  0
 27 28  1  0
 28 29  2  0
 29 30  1  0
 30 31  2  0
 22 32  2  0
 15  3  1  0
 32 17  1  0
 12  6  1  0
 31 23  1  0
 31 26  1  0
M  END
$$$$
