
     RDKit          3D

 29 32  0  0  0  0  0  0  0  0999 V2000
  -27.1457   31.3224  -36.5948 C   0  0  0  0  0  0  0  0  0  0  0  0
  -27.9662   30.6530  -35.4901 C   0  0  0  0  0  0  0  0  0  0  0  0
  -29.0862   31.6334  -35.1691 C   0  0  0  0  0  0  0  0  0  0  0  0
  -28.4793   29.3285  -35.9754 C   0  0  0  0  0  0  0  0  0  0  0  0
  -27.3234   28.3808  -36.2027 C   0  0  0  0  0  0  0  0  0  0  0  0
  -27.5793   27.0670  -35.6882 N   0  0  0  0  0  0  0  0  0  0  0  0
  -27.1656   26.7876  -34.4400 C   0  0  0  0  0  0  0  0  0  0  0  0
  -26.5705   27.6530  -33.7475 O   0  0  0  0  0  0  0  0  0  0  0  0
  -27.3861   25.5265  -33.8781 C   0  0  0  0  0  0  0  0  0  0  0  0
  -26.9312   25.2442  -32.5034 C   0  0  0  0  0  0  0  0  0  0  0  0
  -26.6123   26.2068  -31.7371 N   0  0  0  0  0  0  0  0  0  0  0  0
  -26.1642   26.1223  -30.4092 C   0  0  0  0  0  0  0  0  0  0  0  0
  -25.8413   27.3053  -29.7211 C   0  0  0  0  0  0  0  0  0  0  0  0
  -25.3846   27.3062  -28.4251 C   0  0  0  0  0  0  0  0  0  0  0  0
  -25.2355   26.1024  -27.7699 C   0  0  0  0  0  0  0  0  0  0  0  0
  -25.5537   24.9558  -28.4507 C   0  0  0  0  0  0  0  0  0  0  0  0
  -26.0049   24.9510  -29.7297 C   0  0  0  0  0  0  0  0  0  0  0  0
  -26.3944   23.4428  -30.4961 S   0  0  0  0  0  6  0  0  0  0  0  0
  -27.6345   22.9008  -29.8432 O   0  0  0  0  0  0  0  0  0  0  0  0
  -25.2733   22.4755  -30.5159 O   0  0  0  0  0  0  0  0  0  0  0  0
  -26.8522   23.8809  -32.1281 N   0  0  0  0  0  0  0  0  0  0  0  0
  -28.0392   24.6115  -34.6676 C   0  0  0  0  0  0  0  0  0  0  0  0
  -28.2910   23.3229  -34.1543 O   0  0  0  0  0  0  0  0  0  0  0  0
  -28.4743   24.8721  -35.9513 C   0  0  0  0  0  0  0  0  0  0  0  0
  -29.1299   23.9219  -36.7076 C   0  0  0  0  0  0  0  0  0  0  0  0
  -29.5634   24.1899  -37.9834 C   0  0  0  0  0  0  0  0  0  0  0  0
  -29.3220   25.4423  -38.4856 C   0  0  0  0  0  0  0  0  0  0  0  0
  -28.6588   26.4106  -37.7267 C   0  0  0  0  0  0  0  0  0  0  0  0
  -28.2158   26.1581  -36.4426 C   0  0  0  0  0  0  0  0  0  0  0  0
  1  2  1  0
  2  3  1  0
  2  4  1  0
  4  5  1  0
  5  6  1  0
  6  7  1  0
  7  8  2  0
  7  9  1  0
  9 10  1  0
 10 11  2  0
 11 12  1  0
 12 13  2  0
 13 14  1  0
 14 15  2  0
 15 16  1  0
 16 17  2  0
 17 18  1  0
 18 19  2  0
 18 20  2  0
 18 21  1  0
  9 22  2  0
 22 23  1  0
 22 24  1  0
 24 25  2  0
 25 26  1  0
 26 27  2  0
 27 28  1  0
 28 29  2  0
 29  6  1  0
 21 10  1  0
 29 24  1  0
 17 12  1  0
M  END
$$$$
