
     RDKit          3D

 29 32  0  0  0  0  0  0  0  0999 V2000
  -17.8342   22.9876  -35.4673 C   0  0  0  0  0  0  0  0  0  0  0  0
  -16.4194   22.5054  -35.3707 C   0  0  0  0  0  0  0  0  0  0  0  0
  -16.2599   21.1415  -36.0486 C   0  0  0  0  0  0  0  0  0  0  0  0
  -15.4674   20.4056  -36.4626 N   0  0  0  0  0  0  0  0  0  0  0  0
  -15.6297   19.2284  -37.0286 C   0  0  0  0  0  0  0  0  0  0  0  0
  -14.4815   18.4114  -37.4964 C   0  0  0  0  0  0  0  0  0  0  0  0
  -13.6107   17.7879  -36.6333 C   0  0  0  0  0  0  0  0  0  0  0  0
  -12.5525   17.0289  -37.0486 C   0  0  0  0  0  0  0  0  0  0  0  0
  -12.3248   16.8647  -38.3894 C   0  0  0  0  0  0  0  0  0  0  0  0
  -13.1683   17.4684  -39.2937 C   0  0  0  0  0  0  0  0  0  0  0  0
  -12.9278   17.2897  -40.7551 C   0  0  0  0  0  0  0  0  0  0  0  0
  -14.2375   18.2353  -38.8542 C   0  0  0  0  0  0  0  0  0  0  0  0
  -16.8985   18.7974  -37.1545 C   0  0  0  0  0  0  0  0  0  0  0  0
  -17.5375   17.6322  -37.6914 C   0  0  0  0  0  0  0  0  0  0  0  0
  -16.8091   16.6665  -38.3362 C   0  0  0  0  0  0  0  0  0  0  0  0
  -17.4702   15.5369  -38.8332 C   0  0  0  0  0  0  0  0  0  0  0  0
  -18.7990   15.4343  -38.6625 N   0  0  0  0  0  0  0  0  0  0  0  0
  -19.5502   16.3417  -38.0456 C   0  0  0  0  0  0  0  0  0  0  0  0
  -20.9487   16.1481  -37.8917 N   0  0  0  0  0  0  0  0  0  0  0  0
  -21.9255   17.1406  -37.8283 C   0  0  0  0  0  0  0  0  0  0  0  0
  -21.5346   18.3352  -37.6412 O   0  0  0  0  0  0  0  0  0  0  0  0
  -23.3671   16.9225  -37.9596 C   0  0  0  0  0  0  0  0  0  0  0  0
  -23.8325   15.8885  -38.7586 C   0  0  0  0  0  0  0  0  0  0  0  0
  -25.1790   15.6544  -38.9127 C   0  0  0  0  0  0  0  0  0  0  0  0
  -26.0622   16.4772  -38.2501 C   0  0  0  0  0  0  0  0  0  0  0  0
  -25.6293   17.5198  -37.4436 C   0  0  0  0  0  0  0  0  0  0  0  0
  -24.2795   17.7293  -37.3085 C   0  0  0  0  0  0  0  0  0  0  0  0
  -18.8978   17.4759  -37.5451 C   0  0  0  0  0  0  0  0  0  0  0  0
  -17.8460   20.1906  -36.4077 S   0  0  0  0  0  0  0  0  0  0  0  0
  1  2  1  0
  2  3  1  0
  3  4  2  0
  4  5  1  0
  5  6  1  0
  6  7  2  0
  7  8  1  0
  8  9  2  0
  9 10  1  0
 10 11  1  0
 10 12  2  0
  5 13  2  0
 13 14  1  0
 14 15  2  0
 15 16  1  0
 16 17  2  0
 17 18  1  0
 18 19  1  0
 19 20  1  0
 20 21  2  0
 20 22  1  0
 22 23  2  0
 23 24  1  0
 24 25  2  0
 25 26  1  0
 26 27  2  0
 18 28  2  0
 13 29  1  0
 29  3  1  0
 12  6  1  0
 28 14  1  0
 27 22  1  0
M  END
$$$$
