
     RDKit          3D

 20 22  0  0  0  0  0  0  0  0999 V2000
  -17.8982   38.0114  -20.4189 O   0  0  0  0  0  0  0  0  0  0  0  0
  -18.6428   38.1014  -21.4032 C   0  0  0  0  0  0  0  0  0  0  0  0
  -19.0879   39.3226  -21.9265 C   0  0  0  0  0  0  0  0  0  0  0  0
  -18.6386   40.4590  -21.2662 O   0  0  0  0  0  0  0  0  0  0  0  0
  -19.9078   39.4000  -23.0117 C   0  0  0  0  0  0  0  0  0  0  0  0
  -20.4125   40.6135  -23.6145 C   0  0  0  0  0  0  0  0  0  0  0  0
  -19.8570   41.8493  -23.4617 C   0  0  0  0  0  0  0  0  0  0  0  0
  -20.3952   43.0016  -24.0765 C   0  0  0  0  0  0  0  0  0  0  0  0
  -21.5143   42.9323  -24.8651 C   0  0  0  0  0  0  0  0  0  0  0  0
  -22.0849   41.6941  -25.0283 C   0  0  0  0  0  0  0  0  0  0  0  0
  -21.5554   40.5794  -24.4273 C   0  0  0  0  0  0  0  0  0  0  0  0
  -20.2622   38.2485  -23.5468 O   0  0  0  0  0  0  0  0  0  0  0  0
  -19.8957   37.0703  -23.1255 C   0  0  0  0  0  0  0  0  0  0  0  0
  -20.3341   35.9061  -23.7730 C   0  0  0  0  0  0  0  0  0  0  0  0
  -19.9511   34.6614  -23.3334 C   0  0  0  0  0  0  0  0  0  0  0  0
  -20.3908   33.5145  -23.9817 O   0  0  0  0  0  0  0  0  0  0  0  0
  -19.1244   34.5833  -22.2393 C   0  0  0  0  0  0  0  0  0  0  0  0
  -18.6748   35.7044  -21.5795 C   0  0  0  0  0  0  0  0  0  0  0  0
  -17.8428   35.6709  -20.4759 O   0  0  0  0  0  0  0  0  0  0  0  0
  -19.0673   36.9597  -22.0310 C   0  0  0  0  0  0  0  0  0  0  0  0
  1  2  2  0
  2  3  1  0
  3  4  1  0
  3  5  2  0
  5  6  1  0
  6  7  2  0
  7  8  1  0
  8  9  2  0
  9 10  1  0
 10 11  2  0
  5 12  1  0
 12 13  1  0
 13 14  2  0
 14 15  1  0
 15 16  1  0
 15 17  2  0
 17 18  1  0
 18 19  1  0
 18 20  2  0
 20  2  1  0
 11  6  1  0
 20 13  1  0
M  END
$$$$
