
     RDKit          3D

 21 21  0  0  0  0  0  0  0  0999 V2000
  -39.6628    7.7075  -35.0205 C   0  0  0  0  0  0  0  0  0  0  0  0
  -40.4561    8.7999  -34.2612 C   0  0  0  0  0  0  0  0  0  0  0  0
  -39.9846    8.7946  -32.8653 C   0  0  0  0  0  0  0  0  0  0  0  0
  -40.0215   10.1345  -34.8933 C   0  0  0  0  0  0  0  0  0  0  0  0
  -41.8515    8.5429  -34.5375 C   0  0  0  0  0  0  0  0  0  0  0  0
  -42.3539    7.4565  -35.1808 C   0  0  0  0  0  0  0  0  0  0  0  0
  -43.6928    7.3179  -35.5310 C   0  0  0  0  0  0  0  0  0  0  0  0
  -44.0694    6.0940  -36.2379 C   0  0  0  0  0  0  0  0  0  0  0  0
  -44.3306    5.1665  -36.8925 C   0  0  0  0  0  0  0  0  0  0  0  0
  -45.1990    3.9861  -36.4365 C   0  0  0  0  0  0  0  0  0  0  0  0
  -45.8078    3.1805  -36.1085 N   0  0  0  0  0  0  0  0  0  0  0  0
  -43.6370    4.8172  -38.1825 C   0  0  0  0  0  0  0  0  0  0  0  0
  -43.1097    4.5699  -39.1477 N   0  0  0  0  0  0  0  0  0  0  0  0
  -44.5756    8.3267  -35.2093 C   0  0  0  0  0  0  0  0  0  0  0  0
  -44.1070    9.4486  -34.5482 C   0  0  0  0  0  0  0  0  0  0  0  0
  -44.9899   10.6133  -34.1480 C   0  0  0  0  0  0  0  0  0  0  0  0
  -44.5334   11.9009  -34.7946 C   0  0  0  0  0  0  0  0  0  0  0  0
  -46.4373   10.3941  -34.4758 C   0  0  0  0  0  0  0  0  0  0  0  0
  -44.7775   10.8154  -32.6413 C   0  0  0  0  0  0  0  0  0  0  0  0
  -42.7523    9.5478  -34.2212 C   0  0  0  0  0  0  0  0  0  0  0  0
  -42.2920   10.6727  -33.5617 O   0  0  0  0  0  0  0  0  0  0  0  0
  1  2  1  0
  2  3  1  0
  2  4  1  0
  2  5  1  0
  5  6  2  0
  6  7  1  0
  7  8  1  0
  8  9  2  3
  9 10  1  0
 10 11  3  0
  9 12  1  0
 12 13  3  0
  7 14  2  0
 14 15  1  0
 15 16  1  0
 16 17  1  0
 16 18  1  0
 16 19  1  0
 15 20  2  0
 20 21  1  0
 20  5  1  0
M  END
$$$$
