
     RDKit          3D

 23 26  0  0  0  0  0  0  0  0999 V2000
  -20.5143   39.4836  -21.7178 O   0  0  0  0  0  0  0  0  0  0  0  0
  -19.3580   39.2923  -22.2460 C   0  0  0  0  0  0  0  0  0  0  0  0
  -18.8195   37.9861  -22.3004 N   0  0  0  0  0  0  0  0  0  0  0  0
  -19.6599   36.8746  -22.0661 C   0  0  0  0  0  0  0  0  0  0  0  0
  -20.8763   37.0305  -21.4537 C   0  0  0  0  0  0  0  0  0  0  0  0
  -21.6492   35.8833  -21.2575 C   0  0  0  0  0  0  0  0  0  0  0  0
  -23.1935   36.0868  -20.4792 Cl  0  0  0  0  0  0  0  0  0  0  0  0
  -21.2085   34.6349  -21.6639 C   0  0  0  0  0  0  0  0  0  0  0  0
  -20.0040   34.4943  -22.2681 C   0  0  0  0  0  0  0  0  0  0  0  0
  -19.2223   35.6186  -22.4721 C   0  0  0  0  0  0  0  0  0  0  0  0
  -18.0851   35.2467  -23.0796 N   0  0  0  0  0  0  0  0  0  0  0  0
  -18.0859   33.9076  -23.2865 C   0  0  0  0  0  0  0  0  0  0  0  0
  -17.1605   33.0695  -23.8637 C   0  0  0  0  0  0  0  0  0  0  0  0
  -17.4420   31.7612  -23.9301 N   0  0  0  0  0  0  0  0  0  0  0  0
  -18.5836   31.2426  -23.4584 C   0  0  0  0  0  0  0  0  0  0  0  0
  -19.5165   32.0751  -22.8784 C   0  0  0  0  0  0  0  0  0  0  0  0
  -19.2909   33.4316  -22.7775 C   0  0  0  0  0  0  0  0  0  0  0  0
  -18.6558   40.4386  -22.7655 C   0  0  0  0  0  0  0  0  0  0  0  0
  -19.0507   41.7024  -22.3446 C   0  0  0  0  0  0  0  0  0  0  0  0
  -18.3708   42.7863  -22.8493 C   0  0  0  0  0  0  0  0  0  0  0  0
  -17.3381   42.6511  -23.7361 C   0  0  0  0  0  0  0  0  0  0  0  0
  -16.9968   41.4032  -24.1103 N   0  0  0  0  0  0  0  0  0  0  0  0
  -17.6184   40.3046  -23.6562 C   0  0  0  0  0  0  0  0  0  0  0  0
  1  2  2  0
  2  3  1  0
  3  4  1  0
  4  5  2  0
  5  6  1  0
  6  7  1  0
  6  8  2  0
  8  9  1  0
  9 10  2  0
 10 11  1  0
 11 12  1  0
 12 13  2  0
 13 14  1  0
 14 15  2  0
 15 16  1  0
 16 17  2  0
  2 18  1  0
 18 19  2  0
 19 20  1  0
 20 21  2  0
 21 22  1  0
 22 23  2  0
 10  4  1  0
 17 12  1  0
 23 18  1  0
 17  9  1  0
M  END
$$$$
