
     RDKit          3D

 22 24  0  0  0  0  0  0  0  0999 V2000
  -21.4194   20.4231  -35.8930 C   0  0  0  0  0  0  0  0  0  0  0  0
  -21.7168   19.3385  -35.0254 O   0  0  0  0  0  0  0  0  0  0  0  0
  -22.5897   19.4487  -33.9664 C   0  0  0  0  0  0  0  0  0  0  0  0
  -23.9389   19.2844  -34.1328 C   0  0  0  0  0  0  0  0  0  0  0  0
  -24.5383   18.9781  -35.4579 C   0  0  0  0  0  0  0  0  0  0  0  0
  -24.7543   19.4134  -33.0029 C   0  0  0  0  0  0  0  0  0  0  0  0
  -24.2766   19.6820  -31.8074 N   0  0  0  0  0  0  0  0  0  0  0  0
  -22.9369   19.8445  -31.6433 C   0  0  0  0  0  0  0  0  0  0  0  0
  -22.4614   20.1204  -30.2859 C   0  0  0  0  0  0  0  0  0  0  0  0
  -22.5928   21.5137  -29.9256 N   0  0  0  0  0  0  0  0  0  0  0  0
  -21.8792   22.5785  -30.2910 C   0  0  0  0  0  0  0  0  0  0  0  0
  -22.3997   23.6986  -29.6957 N   0  0  0  0  0  0  0  0  0  0  0  0
  -23.4467   23.3550  -28.9490 C   0  0  0  0  0  0  0  0  0  0  0  0
  -24.3471   24.0360  -28.1385 C   0  0  0  0  0  0  0  0  0  0  0  0
  -24.2130   25.7637  -27.9429 Cl  0  0  0  0  0  0  0  0  0  0  0  0
  -25.3048   23.3613  -27.5188 N   0  0  0  0  0  0  0  0  0  0  0  0
  -25.4500   22.0146  -27.6405 C   0  0  0  0  0  0  0  0  0  0  0  0
  -26.4851   21.3158  -26.9674 N   0  0  0  0  0  0  0  0  0  0  0  0
  -24.5724   21.3800  -28.4254 N   0  0  0  0  0  0  0  0  0  0  0  0
  -23.5714   21.9893  -29.0897 C   0  0  0  0  0  0  0  0  0  0  0  0
  -22.0680   19.7338  -32.7063 C   0  0  0  0  0  0  0  0  0  0  0  0
  -20.5975   19.9246  -32.5342 C   0  0  0  0  0  0  0  0  0  0  0  0
  1  2  1  0
  2  3  1  0
  3  4  2  0
  4  5  1  0
  4  6  1  0
  6  7  2  0
  7  8  1  0
  8  9  1  0
  9 10  1  0
 10 11  1  0
 11 12  2  0
 12 13  1  0
 13 14  2  0
 14 15  1  0
 14 16  1  0
 16 17  2  0
 17 18  1  0
 17 19  1  0
 19 20  2  0
  8 21  2  0
 21 22  1  0
 21  3  1  0
 20 10  1  0
 20 13  1  0
M  END
$$$$
