
     RDKit          3D

 28 31  0  0  0  0  0  0  0  0999 V2000
  -20.0246   33.0260  -19.5037 C   0  0  0  0  0  0  0  0  0  0  0  0
  -19.4784   33.5106  -20.8269 C   0  0  0  0  0  0  0  0  0  0  0  0
  -19.8525   32.5594  -21.9388 C   0  0  0  0  0  0  0  0  0  0  0  0
  -17.9715   33.6078  -20.7943 C   0  0  0  0  0  0  0  0  0  0  0  0
  -17.7371   34.5811  -21.8401 N   0  0  0  0  0  0  0  0  0  0  0  0
  -18.8282   35.5145  -21.7378 C   0  0  0  0  0  0  0  0  0  0  0  0
  -18.9834   36.8334  -22.1177 C   0  0  0  0  0  0  0  0  0  0  0  0
  -20.1436   37.5422  -21.9092 C   0  0  0  0  0  0  0  0  0  0  0  0
  -20.2283   38.9230  -22.3367 N   0  0  0  0  0  0  0  0  0  0  0  0
  -19.1704   39.8201  -21.9517 C   0  0  0  0  0  0  0  0  0  0  0  0
  -18.2554   39.2629  -21.2880 O   0  0  0  0  0  0  0  0  0  0  0  0
  -19.2402   41.2006  -22.3340 C   0  0  0  0  0  0  0  0  0  0  0  0
  -20.2823   41.6344  -23.1600 C   0  0  0  0  0  0  0  0  0  0  0  0
  -20.4057   42.9582  -23.5723 C   0  0  0  0  0  0  0  0  0  0  0  0
  -19.4504   43.8314  -23.1293 C   0  0  0  0  0  0  0  0  0  0  0  0
  -18.4667   43.4109  -22.3468 N   0  0  0  0  0  0  0  0  0  0  0  0
  -18.3220   42.1205  -21.9279 C   0  0  0  0  0  0  0  0  0  0  0  0
  -17.2404   41.7933  -21.0856 N   0  0  0  0  0  0  0  0  0  0  0  0
  -15.9647   42.5257  -21.0657 C   0  0  0  0  0  0  0  0  0  0  0  0
  -16.1499   43.7361  -20.2436 C   0  0  0  0  0  0  0  0  0  0  0  0
  -16.7448   43.7506  -19.0057 C   0  0  0  0  0  0  0  0  0  0  0  0
  -16.9328   44.9164  -18.2576 C   0  0  0  0  0  0  0  0  0  0  0  0
  -16.5034   46.0731  -18.7900 N   0  0  0  0  0  0  0  0  0  0  0  0
  -15.9162   46.1372  -19.9854 C   0  0  0  0  0  0  0  0  0  0  0  0
  -15.7354   44.9917  -20.7136 C   0  0  0  0  0  0  0  0  0  0  0  0
  -21.2129   36.9369  -21.2976 C   0  0  0  0  0  0  0  0  0  0  0  0
  -21.0738   35.6195  -20.9121 C   0  0  0  0  0  0  0  0  0  0  0  0
  -19.8935   34.8971  -21.1240 C   0  0  0  0  0  0  0  0  0  0  0  0
  1  2  1  0
  2  3  1  0
  2  4  1  0
  4  5  1  0
  5  6  1  0
  6  7  2  0
  7  8  1  0
  8  9  1  0
  9 10  1  0
 10 11  2  0
 10 12  1  0
 12 13  2  0
 13 14  1  0
 14 15  2  0
 15 16  1  0
 16 17  2  0
 17 18  1  0
 18 19  1  0
 19 20  1  0
 20 21  2  0
 21 22  1  0
 22 23  2  0
 23 24  1  0
 24 25  2  0
  8 26  2  0
 26 27  1  0
 27 28  2  0
 28  2  1  0
 28  6  1  0
 17 12  1  0
 25 20  1  0
M  END
$$$$
