
     RDKit          3D

 22 23  0  0  0  0  0  0  0  0999 V2000
  -29.7430   14.8130  -24.8464 O   0  0  0  0  0  0  0  0  0  0  0  0
  -29.0076   15.7375  -24.4617 C   0  0  0  0  0  0  0  0  0  0  0  0
  -29.0994   16.9958  -25.1046 O   0  0  0  0  0  0  0  0  0  0  0  0
  -28.0315   15.6136  -23.3663 C   0  0  0  0  0  0  0  0  0  0  0  0
  -27.2998   16.7590  -23.0118 C   0  0  0  0  0  0  0  0  0  0  0  0
  -26.3771   16.7496  -21.9963 C   0  0  0  0  0  0  0  0  0  0  0  0
  -25.6418   17.9308  -21.6510 N   0  0  0  0  0  4  0  0  0  0  0  0
  -25.7476   18.9748  -22.3173 O   0  0  0  0  0  0  0  0  0  0  0  0
  -24.7935   17.9641  -20.5774 O   0  0  0  0  0  1  0  0  0  0  0  0
  -26.1801   15.5681  -21.3191 C   0  0  0  0  0  0  0  0  0  0  0  0
  -26.8710   14.4308  -21.6332 C   0  0  0  0  0  0  0  0  0  0  0  0
  -27.8014   14.4633  -22.6651 C   0  0  0  0  0  0  0  0  0  0  0  0
  -28.4819   13.2439  -23.0036 N   0  0  0  0  0  0  0  0  0  0  0  0
  -28.6542   12.1718  -22.0470 C   0  0  0  0  0  0  0  0  0  0  0  0
  -29.8628   12.4515  -21.2226 C   0  0  0  0  0  0  0  0  0  0  0  0
  -30.0942   11.4433  -20.1281 C   0  0  0  0  0  0  0  0  0  0  0  0
  -31.3352   11.6496  -19.3817 C   0  0  0  0  0  0  0  0  0  0  0  0
  -31.6126   12.7475  -18.5929 C   0  0  0  0  0  0  0  0  0  0  0  0
  -32.7996   12.8905  -17.9111 C   0  0  0  0  0  0  0  0  0  0  0  0
  -33.7705   11.9179  -17.9978 C   0  0  0  0  0  0  0  0  0  0  0  0
  -33.5163   10.8107  -18.7803 C   0  0  0  0  0  0  0  0  0  0  0  0
  -32.3204   10.6854  -19.4562 C   0  0  0  0  0  0  0  0  0  0  0  0
  1  2  2  0
  2  3  1  0
  2  4  1  0
  4  5  2  0
  5  6  1  0
  6  7  1  0
  7  8  2  0
  7  9  1  0
  6 10  2  0
 10 11  1  0
 11 12  2  0
 12 13  1  0
 13 14  1  0
 14 15  1  0
 15 16  1  0
 16 17  1  0
 17 18  2  0
 18 19  1  0
 19 20  2  0
 20 21  1  0
 21 22  2  0
 12  4  1  0
 22 17  1  0
M  CHG  2   7   1   9  -1
M  END
$$$$
