
     RDKit          3D

 22 25  0  0  0  0  0  0  0  0999 V2000
  -10.4343    1.9467  -33.6906 C   0  0  0  0  0  0  0  0  0  0  0  0
  -11.0954    2.2775  -32.5348 C   0  0  0  0  0  0  0  0  0  0  0  0
  -12.1707    1.4902  -32.1155 C   0  0  0  0  0  0  0  0  0  0  0  0
  -12.5913    0.3913  -32.8231 C   0  0  0  0  0  0  0  0  0  0  0  0
  -13.6876   -0.3825  -32.3639 N   0  0  0  0  0  0  0  0  0  0  0  0
  -14.5066    0.1898  -31.3202 C   0  0  0  0  0  0  0  0  0  0  0  0
  -15.8409   -0.4318  -31.1756 C   0  0  0  0  0  0  0  0  0  0  0  0
  -16.0433   -1.6987  -31.7707 N   0  0  0  0  0  0  0  0  0  0  0  0
  -17.0192   -1.7321  -32.8121 C   0  0  0  0  0  0  0  0  0  0  0  0
  -17.9701   -0.5908  -32.7453 C   0  0  0  0  0  0  0  0  0  0  0  0
  -18.5665    0.0507  -33.7816 N   0  0  0  0  0  0  0  0  0  0  0  0
  -19.3610    1.0306  -33.3244 C   0  0  0  0  0  0  0  0  0  0  0  0
  -20.1834    1.9742  -33.8883 C   0  0  0  0  0  0  0  0  0  0  0  0
  -20.8988    2.8791  -33.1456 C   0  0  0  0  0  0  0  0  0  0  0  0
  -20.8020    2.8567  -31.7762 C   0  0  0  0  0  0  0  0  0  0  0  0
  -19.9830    1.9189  -31.1863 C   0  0  0  0  0  0  0  0  0  0  0  0
  -19.2636    1.0074  -31.9570 C   0  0  0  0  0  0  0  0  0  0  0  0
  -18.4250    0.0274  -31.6432 N   0  0  0  0  0  0  0  0  0  0  0  0
  -14.8465   -2.4253  -32.0277 C   0  0  0  0  0  0  0  0  0  0  0  0
  -13.9157   -1.6681  -32.9535 C   0  0  0  0  0  0  0  0  0  0  0  0
  -11.9097    0.1045  -33.9549 N   0  0  0  0  0  0  0  0  0  0  0  0
  -10.8741    0.8395  -34.3845 C   0  0  0  0  0  0  0  0  0  0  0  0
  1  2  2  0
  2  3  1  0
  3  4  2  0
  4  5  1  0
  5  6  1  0
  6  7  1  0
  7  8  1  0
  8  9  1  0
  9 10  1  0
 10 11  2  0
 11 12  1  0
 12 13  2  0
 13 14  1  0
 14 15  2  0
 15 16  1  0
 16 17  2  0
 17 18  1  0
  8 19  1  0
 19 20  1  0
  4 21  1  0
 21 22  2  0
 22  1  1  0
 20  5  1  0
 18 10  1  0
 17 12  1  0
M  END
$$$$
