
     RDKit          3D

 31 36  0  0  0  0  0  0  0  0999 V2000
  -11.2403    0.6409  -32.4763 C   0  0  0  0  0  0  0  0  0  0  0  0
  -12.1212   -0.2909  -33.0782 O   0  0  0  0  0  0  0  0  0  0  0  0
  -13.4679   -0.3142  -32.8843 C   0  0  0  0  0  0  0  0  0  0  0  0
  -14.0659    0.7045  -32.1748 C   0  0  0  0  0  0  0  0  0  0  0  0
  -15.4252    0.6681  -31.9832 C   0  0  0  0  0  0  0  0  0  0  0  0
  -16.1995   -0.3482  -32.4752 C   0  0  0  0  0  0  0  0  0  0  0  0
  -17.6502   -0.3729  -32.2645 C   0  0  0  0  0  0  0  0  0  0  0  0
  -18.1561   -0.6422  -31.0089 C   0  0  0  0  0  0  0  0  0  0  0  0
  -19.5272   -0.6646  -30.8255 C   0  0  0  0  0  0  0  0  0  0  0  0
  -20.3965   -0.4241  -31.8687 C   0  0  0  0  0  0  0  0  0  0  0  0
  -21.7723   -0.4448  -31.6947 C   0  0  0  0  0  0  0  0  0  0  0  0
  -22.6445   -0.1996  -32.7609 C   0  0  0  0  0  0  0  0  0  0  0  0
  -24.0778   -0.2258  -32.5637 C   0  0  0  0  0  0  0  0  0  0  0  0
  -24.8341   -0.0982  -33.5482 O   0  0  0  0  0  0  0  0  0  0  0  0
  -24.6121   -0.3895  -31.3071 O   0  0  0  0  0  0  0  0  0  0  0  0
  -22.1396    0.0695  -34.0150 C   0  0  0  0  0  0  0  0  0  0  0  0
  -20.7734    0.0907  -34.1910 C   0  0  0  0  0  0  0  0  0  0  0  0
  -19.8992   -0.1529  -33.1321 C   0  0  0  0  0  0  0  0  0  0  0  0
  -18.5330   -0.1319  -33.3087 C   0  0  0  0  0  0  0  0  0  0  0  0
  -15.5671   -1.3557  -33.1833 C   0  0  0  0  0  0  0  0  0  0  0  0
  -14.1990   -1.3721  -33.4094 C   0  0  0  0  0  0  0  0  0  0  0  0
  -13.6315   -2.4832  -34.1750 C   0  0  0  0  0  0  0  0  0  0  0  0
  -13.1258   -1.9378  -35.5152 C   0  0  0  0  0  0  0  0  0  0  0  0
  -12.5181   -3.0696  -36.3472 C   0  0  0  0  0  0  0  0  0  0  0  0
  -13.5890   -4.0738  -36.6147 C   0  0  0  0  0  0  0  0  0  0  0  0
  -14.1627   -4.6196  -35.3237 C   0  0  0  0  0  0  0  0  0  0  0  0
  -13.0737   -5.3026  -34.5371 C   0  0  0  0  0  0  0  0  0  0  0  0
  -11.9788   -4.2933  -34.3174 C   0  0  0  0  0  0  0  0  0  0  0  0
  -11.4078   -3.7467  -35.6030 C   0  0  0  0  0  0  0  0  0  0  0  0
  -12.4407   -3.1144  -33.5000 C   0  0  0  0  0  0  0  0  0  0  0  0
  -14.7130   -3.4999  -34.4573 C   0  0  0  0  0  0  0  0  0  0  0  0
  1  2  1  0
  2  3  1  0
  3  4  2  0
  4  5  1  0
  5  6  2  0
  6  7  1  0
  7  8  2  0
  8  9  1  0
  9 10  2  0
 10 11  1  0
 11 12  2  0
 12 13  1  0
 13 14  2  0
 13 15  1  0
 12 16  1  0
 16 17  2  0
 17 18  1  0
 18 19  2  0
  6 20  1  0
 20 21  2  0
 21 22  1  0
 22 23  1  0
 23 24  1  0
 24 25  1  0
 25 26  1  0
 26 27  1  0
 27 28  1  0
 28 29  1  0
 28 30  1  0
 26 31  1  0
 21  3  1  0
 30 22  1  0
 19  7  1  0
 31 22  1  0
 18 10  1  0
 29 24  1  0
M  END
$$$$
