
     RDKit          3D

 32 36  0  0  0  0  0  0  0  0999 V2000
  -21.1838   34.1987  -23.7422 C   0  0  0  0  0  0  0  0  0  0  0  0
  -20.9507   35.5139  -23.1964 N   0  0  0  0  0  0  0  0  0  0  0  0
  -20.3820   36.5350  -24.1413 C   0  0  0  0  0  0  0  0  0  0  0  0
  -21.1795   35.9538  -21.9122 C   0  0  0  0  0  0  0  0  0  0  0  0
  -21.5708   35.0289  -21.0754 O   0  0  0  0  0  0  0  0  0  0  0  0
  -21.0716   37.2576  -21.2890 C   0  0  0  0  0  0  0  0  0  0  0  0
  -22.1037   37.6707  -20.3449 C   0  0  0  0  0  0  0  0  0  0  0  0
  -22.9718   38.0050  -19.5744 N   0  0  0  0  0  0  0  0  0  0  0  0
  -20.1678   38.1792  -21.5183 C   0  0  0  0  0  0  0  0  0  0  0  0
  -19.8471   39.2302  -20.5170 C   0  0  0  0  0  0  0  0  0  0  0  0
  -20.2705   39.4862  -19.2715 C   0  0  0  0  0  0  0  0  0  0  0  0
  -19.6515   40.5950  -18.8141 C   0  0  0  0  0  0  0  0  0  0  0  0
  -18.8099   41.0240  -19.8525 C   0  0  0  0  0  0  0  0  0  0  0  0
  -17.9448   42.1931  -19.8245 C   0  0  0  0  0  0  0  0  0  0  0  0
  -17.0989   42.5144  -18.8005 N   0  0  0  0  0  0  0  0  0  0  0  0
  -16.4588   43.6390  -19.0985 C   0  0  0  0  0  0  0  0  0  0  0  0
  -15.4941   44.3968  -18.4321 C   0  0  0  0  0  0  0  0  0  0  0  0
  -15.0064   45.5080  -18.9812 N   0  0  0  0  0  0  0  0  0  0  0  0
  -15.4063   45.9446  -20.1666 C   0  0  0  0  0  0  0  0  0  0  0  0
  -15.0744   47.0394  -20.9025 N   0  0  0  0  0  0  0  0  0  0  0  0
  -15.7928   47.0156  -22.0257 C   0  0  0  0  0  0  0  0  0  0  0  0
  -16.6139   45.8773  -22.0197 C   0  0  0  0  0  0  0  0  0  0  0  0
  -16.3700   45.2129  -20.8649 C   0  0  0  0  0  0  0  0  0  0  0  0
  -16.8961   44.0545  -20.3288 C   0  0  0  0  0  0  0  0  0  0  0  0
  -17.8180   43.1478  -20.7736 N   0  0  0  0  0  0  0  0  0  0  0  0
  -18.4889   43.1840  -22.0340 C   0  0  0  0  0  0  0  0  0  0  0  0
  -17.6237   43.0718  -23.2371 C   0  0  0  0  0  0  0  0  0  0  0  0
  -18.5210   42.6201  -24.3951 C   0  0  0  0  0  0  0  0  0  0  0  0
  -19.5841   43.6810  -24.6164 C   0  0  0  0  0  0  0  0  0  0  0  0
  -20.3770   43.9114  -23.3481 C   0  0  0  0  0  0  0  0  0  0  0  0
  -19.3974   44.4078  -22.2394 C   0  0  0  0  0  0  0  0  0  0  0  0
  -18.9761   40.1790  -20.8080 O   0  0  0  0  0  0  0  0  0  0  0  0
  1  2  1  0
  2  3  1  0
  2  4  1  0
  4  5  2  0
  4  6  1  0
  6  7  1  0
  7  8  3  0
  6  9  2  0
  9 10  1  0
 10 11  2  0
 11 12  1  0
 12 13  2  0
 13 14  1  0
 14 15  2  0
 15 16  1  0
 16 17  2  0
 17 18  1  0
 18 19  2  0
 19 20  1  0
 20 21  1  0
 21 22  2  0
 22 23  1  0
 23 24  2  0
 24 25  1  0
 25 26  1  0
 26 27  1  0
 27 28  1  0
 28 29  1  0
 29 30  1  0
 30 31  1  0
 13 32  1  0
 32 10  1  0
 25 14  1  0
 31 26  1  0
 24 16  1  0
 23 19  1  0
M  END
$$$$
