
     RDKit          3D

 20 22  0  0  0  0  0  0  0  0999 V2000
  -17.5963   37.2282  -20.5996 O   0  0  0  0  0  0  0  0  0  0  0  0
  -18.4161   37.6307  -21.8064 S   0  0  0  0  0  6  0  0  0  0  0  0
  -17.7262   37.0084  -22.9873 O   0  0  0  0  0  0  0  0  0  0  0  0
  -20.0576   37.0509  -21.6061 C   0  0  0  0  0  0  0  0  0  0  0  0
  -20.2263   35.5612  -21.7150 C   0  0  0  0  0  0  0  0  0  0  0  0
  -21.3174   35.0960  -22.6511 C   0  0  0  0  0  0  0  0  0  0  0  0
  -21.4723   34.6740  -20.9010 S   0  0  0  0  0  0  0  0  0  0  0  0
  -18.4316   39.3614  -21.9118 C   0  0  0  0  0  0  0  0  0  0  0  0
  -17.4356   40.0362  -22.5604 C   0  0  0  0  0  0  0  0  0  0  0  0
  -17.4407   41.4172  -22.6490 C   0  0  0  0  0  0  0  0  0  0  0  0
  -18.4682   42.1155  -22.0724 C   0  0  0  0  0  0  0  0  0  0  0  0
  -18.4226   43.5022  -22.1921 O   0  0  0  0  0  0  0  0  0  0  0  0
  -17.5012   44.2779  -21.5010 C   0  0  0  0  0  0  0  0  0  0  0  0
  -17.1436   43.9652  -20.2011 C   0  0  0  0  0  0  0  0  0  0  0  0
  -16.2302   44.7216  -19.4951 C   0  0  0  0  0  0  0  0  0  0  0  0
  -15.6292   45.8292  -20.0554 C   0  0  0  0  0  0  0  0  0  0  0  0
  -15.9771   46.1515  -21.3504 C   0  0  0  0  0  0  0  0  0  0  0  0
  -16.8986   45.3867  -22.0600 C   0  0  0  0  0  0  0  0  0  0  0  0
  -19.4700   41.4561  -21.4213 C   0  0  0  0  0  0  0  0  0  0  0  0
  -19.4469   40.0815  -21.3441 C   0  0  0  0  0  0  0  0  0  0  0  0
  1  2  2  0
  2  3  2  0
  2  4  1  0
  4  5  1  0
  5  6  1  0
  6  7  1  0
  2  8  1  0
  8  9  2  0
  9 10  1  0
 10 11  2  0
 11 12  1  0
 12 13  1  0
 13 14  2  0
 14 15  1  0
 15 16  2  0
 16 17  1  0
 17 18  2  0
 11 19  1  0
 19 20  2  0
  7  5  1  0
 20  8  1  0
 18 13  1  0
M  END
$$$$
