
     RDKit          3D

 22 25  0  0  0  0  0  0  0  0999 V2000
  -12.8917   12.9023  -30.1063 C   0  0  0  0  0  0  0  0  0  0  0  0
  -14.2095   13.5881  -30.2103 C   0  0  0  0  0  0  0  0  0  0  0  0
  -15.3292   12.7825  -30.0195 C   0  0  0  0  0  0  0  0  0  0  0  0
  -16.5740   13.3695  -30.1048 C   0  0  0  0  0  0  0  0  0  0  0  0
  -16.6465   14.7232  -30.3744 C   0  0  0  0  0  0  0  0  0  0  0  0
  -15.5377   15.5315  -30.5656 C   0  0  0  0  0  0  0  0  0  0  0  0
  -15.6470   16.9588  -30.8531 C   0  0  0  0  0  0  0  0  0  0  0  0
  -14.8180   17.9506  -30.4635 N   0  0  0  0  0  0  0  0  0  0  0  0
  -15.2381   19.1195  -30.9009 N   0  0  0  0  0  0  0  0  0  0  0  0
  -16.3610   18.9511  -31.5974 C   0  0  0  0  0  0  0  0  0  0  0  0
  -16.6473   17.5777  -31.5842 C   0  0  0  0  0  0  0  0  0  0  0  0
  -17.7913   17.0058  -32.2466 C   0  0  0  0  0  0  0  0  0  0  0  0
  -17.6560   15.9122  -33.0540 C   0  0  0  0  0  0  0  0  0  0  0  0
  -18.7541   15.3437  -33.7086 C   0  0  0  0  0  0  0  0  0  0  0  0
  -19.9733   15.9589  -33.4840 C   0  0  0  0  0  0  0  0  0  0  0  0
  -21.0880   15.4816  -34.0725 N   0  0  0  0  0  0  0  0  0  0  0  0
  -22.3099   16.0082  -33.9165 C   0  0  0  0  0  0  0  0  0  0  0  0
  -22.4703   17.1103  -33.1077 C   0  0  0  0  0  0  0  0  0  0  0  0
  -21.3690   17.6422  -32.4803 C   0  0  0  0  0  0  0  0  0  0  0  0
  -20.1126   17.0690  -32.6649 C   0  0  0  0  0  0  0  0  0  0  0  0
  -19.0019   17.5472  -32.0770 N   0  0  0  0  0  0  0  0  0  0  0  0
  -14.3410   14.8915  -30.4685 N   0  0  0  0  0  0  0  0  0  0  0  0
  1  2  1  0
  2  3  2  0
  3  4  1  0
  4  5  2  0
  5  6  1  0
  6  7  1  0
  7  8  2  0
  8  9  1  0
  9 10  1  0
 10 11  2  0
 11 12  1  0
 12 13  2  0
 13 14  1  0
 14 15  2  0
 15 16  1  0
 16 17  2  0
 17 18  1  0
 18 19  2  0
 19 20  1  0
 20 21  2  0
  6 22  2  0
 22  2  1  0
 11  7  1  0
 21 12  1  0
 20 15  1  0
M  END
$$$$
