
     RDKit          3D

 26 28  0  0  0  0  0  0  0  0999 V2000
  -21.9568   13.8980  -30.8387 C   0  0  0  0  0  0  0  0  0  0  0  0
  -22.2483   15.2733  -30.8025 O   0  0  0  0  0  0  0  0  0  0  0  0
  -21.2479   16.2310  -30.8199 C   0  0  0  0  0  0  0  0  0  0  0  0
  -19.9130   15.9323  -30.7522 C   0  0  0  0  0  0  0  0  0  0  0  0
  -18.9587   16.9298  -30.7737 C   0  0  0  0  0  0  0  0  0  0  0  0
  -19.2931   18.2650  -30.8631 C   0  0  0  0  0  0  0  0  0  0  0  0
  -20.6527   18.5788  -30.9323 C   0  0  0  0  0  0  0  0  0  0  0  0
  -21.6000   17.5850  -30.9112 C   0  0  0  0  0  0  0  0  0  0  0  0
  -22.9788   17.8835  -30.9647 N   0  0  0  0  0  0  0  0  0  0  0  0
  -23.5938   19.1545  -31.9376 S   0  0  0  0  0  6  0  0  0  0  0  0
  -25.0989   19.1106  -31.9155 O   0  0  0  0  0  0  0  0  0  0  0  0
  -23.1457   20.4944  -31.4916 O   0  0  0  0  0  0  0  0  0  0  0  0
  -23.1123   18.8462  -33.6065 C   0  0  0  0  0  0  0  0  0  0  0  0
  -22.3202   19.7462  -34.2816 C   0  0  0  0  0  0  0  0  0  0  0  0
  -21.9215   19.5462  -35.5822 C   0  0  0  0  0  0  0  0  0  0  0  0
  -22.3257   18.4099  -36.2337 C   0  0  0  0  0  0  0  0  0  0  0  0
  -21.7818   18.1182  -38.0354 Br  0  0  0  0  0  0  0  0  0  0  0  0
  -23.1134   17.4995  -35.5850 C   0  0  0  0  0  0  0  0  0  0  0  0
  -23.5045   17.7100  -34.2881 C   0  0  0  0  0  0  0  0  0  0  0  0
  -24.3713   16.7202  -33.5570 C   0  0  0  0  0  0  0  0  0  0  0  0
  -18.1856   19.0467  -30.8663 N   0  0  0  0  0  0  0  0  0  0  0  0
  -18.1297   20.5010  -30.9478 C   0  0  0  0  0  0  0  0  0  0  0  0
  -17.1493   18.1897  -30.7780 C   0  0  0  0  0  0  0  0  0  0  0  0
  -15.9541   18.5908  -30.7561 O   0  0  0  0  0  0  0  0  0  0  0  0
  -17.5985   16.9231  -30.7221 N   0  0  0  0  0  0  0  0  0  0  0  0
  -16.7820   15.7389  -30.6233 C   0  0  0  0  0  0  0  0  0  0  0  0
  1  2  1  0
  2  3  1  0
  3  4  2  0
  4  5  1  0
  5  6  2  0
  6  7  1  0
  7  8  2  0
  8  9  1  0
  9 10  1  0
 10 11  2  0
 10 12  2  0
 10 13  1  0
 13 14  2  0
 14 15  1  0
 15 16  2  0
 16 17  1  0
 16 18  1  0
 18 19  2  0
 19 20  1  0
  6 21  1  0
 21 22  1  0
 21 23  1  0
 23 24  2  0
 23 25  1  0
 25 26  1  0
  8  3  1  0
 19 13  1  0
 25  5  1  0
M  END
$$$$
