
     RDKit          3D

 38 42  0  0  0  0  0  0  0  0999 V2000
  -11.6582   45.7837  -16.8393 C   0  0  0  0  0  0  0  0  0  0  0  0
  -12.9782   46.2736  -16.9711 O   0  0  0  0  0  0  0  0  0  0  0  0
  -13.9763   45.4619  -17.4837 C   0  0  0  0  0  0  0  0  0  0  0  0
  -15.2686   45.8224  -17.5256 N   0  0  0  0  0  0  0  0  0  0  0  0
  -16.2281   45.0232  -18.0267 C   0  0  0  0  0  0  0  0  0  0  0  0
  -15.9084   43.8005  -18.5176 C   0  0  0  0  0  0  0  0  0  0  0  0
  -16.8206   42.8459  -19.1458 C   0  0  0  0  0  0  0  0  0  0  0  0
  -17.6989   42.0753  -18.4066 N   0  0  0  0  0  0  0  0  0  0  0  0
  -18.3709   41.2634  -19.2167 C   0  0  0  0  0  0  0  0  0  0  0  0
  -17.9378   41.5010  -20.4627 C   0  0  0  0  0  0  0  0  0  0  0  0
  -16.9686   42.4916  -20.3936 N   0  0  0  0  0  0  0  0  0  0  0  0
  -16.2923   42.9102  -21.5962 C   0  0  0  0  0  0  0  0  0  0  0  0
  -14.8438   42.5253  -21.5951 C   0  0  0  0  0  0  0  0  0  0  0  0
  -17.0355   42.5703  -22.8706 C   0  0  0  0  0  0  0  0  0  0  0  0
  -18.6634   40.6351  -21.4149 C   0  0  2  0  0  0  0  0  0  0  0  0
  -19.4374   41.4641  -22.3865 C   0  0  0  0  0  0  0  0  0  0  0  0
  -20.4590   42.2778  -21.9552 C   0  0  0  0  0  0  0  0  0  0  0  0
  -21.1766   43.0459  -22.8527 C   0  0  0  0  0  0  0  0  0  0  0  0
  -20.8923   43.0187  -24.1903 C   0  0  0  0  0  0  0  0  0  0  0  0
  -21.8132   43.9968  -25.2956 Cl  0  0  0  0  0  0  0  0  0  0  0  0
  -19.8585   42.1908  -24.5996 C   0  0  0  0  0  0  0  0  0  0  0  0
  -19.1285   41.4164  -23.7284 C   0  0  0  0  0  0  0  0  0  0  0  0
  -19.5533   39.7981  -20.6308 N   0  0  0  0  0  0  0  0  0  0  0  0
  -20.4015   38.8180  -21.1980 C   0  0  0  0  0  0  0  0  0  0  0  0
  -21.1254   39.1277  -22.3595 C   0  0  0  0  0  0  0  0  0  0  0  0
  -21.9869   38.2444  -22.9575 C   0  0  0  0  0  0  0  0  0  0  0  0
  -22.8685   38.6742  -24.4064 Cl  0  0  0  0  0  0  0  0  0  0  0  0
  -22.1182   37.0092  -22.3596 C   0  0  0  0  0  0  0  0  0  0  0  0
  -21.4250   36.7191  -21.2515 N   0  0  0  0  0  0  0  0  0  0  0  0
  -21.5884   35.4005  -20.6445 C   0  0  0  0  0  0  0  0  0  0  0  0
  -20.5658   37.5813  -20.6427 C   0  0  0  0  0  0  0  0  0  0  0  0
  -19.9826   37.1775  -19.6073 O   0  0  0  0  0  0  0  0  0  0  0  0
  -19.3841   40.2019  -19.2937 C   0  0  0  0  0  0  0  0  0  0  0  0
  -19.9674   39.7749  -18.2501 O   0  0  0  0  0  0  0  0  0  0  0  0
  -14.5510   43.4233  -18.4720 C   0  0  0  0  0  0  0  0  0  0  0  0
  -14.1843   42.1508  -18.9760 O   0  0  0  0  0  0  0  0  0  0  0  0
  -12.9042   41.6590  -18.6291 C   0  0  0  0  0  0  0  0  0  0  0  0
  -13.6589   44.2521  -17.9674 N   0  0  0  0  0  0  0  0  0  0  0  0
  1  2  1  0
  2  3  1  0
  3  4  2  0
  4  5  1  0
  5  6  2  0
  6  7  1  0
  7  8  2  0
  8  9  1  0
  9 10  2  0
 10 11  1  0
 11 12  1  0
 12 13  1  0
 12 14  1  0
 10 15  1  0
 15 16  1  6
 16 17  2  0
 17 18  1  0
 18 19  2  0
 19 20  1  0
 19 21  1  0
 21 22  2  0
 15 23  1  0
 23 24  1  0
 24 25  2  0
 25 26  1  0
 26 27  1  0
 26 28  2  0
 28 29  1  0
 29 30  1  0
 29 31  1  0
 31 32  2  0
 23 33  1  0
 33 34  2  0
  6 35  1  0
 35 36  1  0
 36 37  1  0
 35 38  2  0
 38  3  1  0
 11  7  1  0
 22 16  1  0
 31 24  1  0
 33  9  1  0
M  END
$$$$
