
     RDKit          3D

 24 27  0  0  0  0  0  0  0  0999 V2000
  -18.1486   39.2974  -19.4391 C   0  0  0  0  0  0  0  0  0  0  0  0
  -18.7356   39.9088  -20.6629 C   0  0  0  0  0  0  0  0  0  0  0  0
  -18.9046   39.1684  -21.6139 O   0  0  0  0  0  0  0  0  0  0  0  0
  -19.0730   41.3403  -20.6604 C   0  0  0  0  0  0  0  0  0  0  0  0
  -20.0442   41.6412  -21.6027 O   0  0  0  0  0  0  0  0  0  0  0  0
  -19.6043   41.6750  -19.2668 C   0  0  0  0  0  0  0  0  0  0  0  0
  -18.5398   42.5273  -18.6330 C   0  0  0  0  0  0  0  0  0  0  0  0
  -17.2859   42.3056  -19.4795 C   0  0  0  0  0  0  0  0  0  0  0  0
  -16.3400   43.4000  -19.1988 C   0  0  0  0  0  0  0  0  0  0  0  0
  -14.9140   42.9775  -19.5092 C   0  0  0  0  0  0  0  0  0  0  0  0
  -13.9428   44.0292  -19.0228 C   0  0  0  0  0  0  0  0  0  0  0  0
  -14.7083   45.2773  -18.6816 C   0  0  0  0  0  0  0  0  0  0  0  0
  -14.4664   45.8258  -17.5205 C   0  0  0  0  0  0  0  0  0  0  0  0
  -15.1972   47.0280  -17.1807 C   0  0  0  0  0  0  0  0  0  0  0  0
  -15.3130   47.3867  -15.9879 O   0  0  0  0  0  0  0  0  0  0  0  0
  -15.7986   47.8198  -18.2402 C   0  0  0  0  0  0  0  0  0  0  0  0
  -16.2862   47.0651  -19.4223 C   0  0  0  0  0  0  0  0  0  0  0  0
  -15.6581   45.7580  -19.6950 C   0  0  0  0  0  0  0  0  0  0  0  0
  -14.8563   45.8969  -20.9998 C   0  0  0  0  0  0  0  0  0  0  0  0
  -16.7112   44.6897  -19.8835 C   0  0  0  0  0  0  0  0  0  0  0  0
  -17.0667   44.4913  -21.3350 C   0  0  0  0  0  0  0  0  0  0  0  0
  -18.2489   43.5541  -21.3871 C   0  0  0  0  0  0  0  0  0  0  0  0
  -17.8416   42.2245  -20.8444 C   0  0  0  0  0  0  0  0  0  0  0  0
  -16.9603   41.5349  -21.8502 C   0  0  0  0  0  0  0  0  0  0  0  0
  1  2  1  0
  2  3  2  0
  2  4  1  0
  4  5  1  0
  4  6  1  0
  6  7  1  0
  7  8  1  0
  8  9  1  0
  9 10  1  0
 10 11  1  0
 11 12  1  0
 12 13  2  0
 13 14  1  0
 14 15  2  0
 14 16  1  0
 16 17  1  0
 17 18  1  0
 18 19  1  0
 18 20  1  0
 20 21  1  0
 21 22  1  0
 22 23  1  0
 23 24  1  0
 23  4  1  0
 23  8  1  0
 20  9  1  0
 18 12  1  0
M  END
$$$$
