
     RDKit          3D

 39 43  0  0  0  0  0  0  0  0999 V2000
  -21.1220   -3.4606  -28.5170 C   0  0  0  0  0  0  0  0  0  0  0  0
  -21.1132   -3.1119  -29.8824 O   0  0  0  0  0  0  0  0  0  0  0  0
  -20.0478   -2.3561  -30.3965 C   0  0  0  0  0  0  0  0  0  0  0  0
  -18.7691   -2.8578  -30.2723 C   0  0  0  0  0  0  0  0  0  0  0  0
  -17.6869   -2.1680  -30.7534 C   0  0  0  0  0  0  0  0  0  0  0  0
  -16.4057   -2.6504  -30.6381 C   0  0  0  0  0  0  0  0  0  0  0  0
  -16.1221   -3.8859  -30.0210 N   0  0  0  0  0  0  0  0  0  0  0  0
  -15.0198   -4.7378  -30.5177 C   0  0  0  0  0  0  0  0  0  0  0  0
  -13.7781   -4.3857  -29.7906 C   0  0  0  0  0  0  0  0  0  0  0  0
  -13.3437   -5.4250  -28.7839 C   0  0  0  0  0  0  0  0  0  0  0  0
  -14.5588   -5.9111  -28.1599 N   0  0  0  0  0  0  0  0  0  0  0  0
  -14.3528   -6.5567  -26.9065 C   0  0  0  0  0  0  0  0  0  0  0  0
  -13.6492   -5.7233  -25.8804 C   0  0  0  0  0  0  0  0  0  0  0  0
  -13.6690   -7.8699  -27.1010 C   0  0  0  0  0  0  0  0  0  0  0  0
  -15.1891   -6.8100  -29.1023 C   0  0  0  0  0  0  0  0  0  0  0  0
  -15.4253   -6.1743  -30.4401 C   0  0  0  0  0  0  0  0  0  0  0  0
  -15.4056   -1.8726  -31.1555 N   0  0  0  0  0  0  0  0  0  0  0  0
  -15.6332   -0.7012  -31.7470 C   0  0  0  0  0  0  0  0  0  0  0  0
  -14.5608    0.0942  -32.2819 N   0  0  0  0  0  0  0  0  0  0  0  0
  -13.2045   -0.1359  -31.8418 C   0  0  0  0  0  0  0  0  0  0  0  0
  -12.2466    0.4855  -32.8172 C   0  0  0  0  0  0  0  0  0  0  0  0
  -12.4772    1.9876  -32.7769 C   0  0  0  0  0  0  0  0  0  0  0  0
  -11.8022    2.5333  -33.8429 F   0  0  0  0  0  0  0  0  0  0  0  0
  -11.9423    2.5259  -31.6191 F   0  0  0  0  0  0  0  0  0  0  0  0
  -13.9383    2.3294  -32.8153 C   0  0  0  0  0  0  0  0  0  0  0  0
  -14.7853    1.1296  -33.2561 C   0  0  0  0  0  0  0  0  0  0  0  0
  -16.8876   -0.2602  -31.8433 N   0  0  0  0  0  0  0  0  0  0  0  0
  -17.9090   -0.9389  -31.3759 C   0  0  0  0  0  0  0  0  0  0  0  0
  -19.1853   -0.4434  -31.4973 C   0  0  0  0  0  0  0  0  0  0  0  0
  -20.2597   -1.1463  -31.0100 C   0  0  0  0  0  0  0  0  0  0  0  0
  -21.5322   -0.6605  -31.1266 O   0  0  0  0  0  0  0  0  0  0  0  0
  -21.7446    0.6376  -31.6260 C   0  0  0  0  0  0  0  0  0  0  0  0
  -23.2469    0.7636  -31.8775 C   0  0  0  0  0  0  0  0  0  0  0  0
  -23.8997    0.9196  -30.5144 C   0  0  0  0  0  0  0  0  0  0  0  0
  -25.3272    1.1456  -30.6405 N   0  0  0  0  0  0  0  0  0  0  0  0
  -25.5964    2.5018  -31.0767 C   0  0  0  0  0  0  0  0  0  0  0  0
  -26.9525    2.3434  -31.7766 C   0  0  0  0  0  0  0  0  0  0  0  0
  -26.7159    1.0803  -32.5753 C   0  0  0  0  0  0  0  0  0  0  0  0
  -25.8203    0.2785  -31.6897 C   0  0  0  0  0  0  0  0  0  0  0  0
  1  2  1  0
  2  3  1  0
  3  4  2  0
  4  5  1  0
  5  6  2  0
  6  7  1  0
  7  8  1  0
  8  9  1  0
  9 10  1  0
 10 11  1  0
 11 12  1  0
 12 13  1  0
 12 14  1  0
 11 15  1  0
 15 16  1  0
  6 17  1  0
 17 18  2  0
 18 19  1  0
 19 20  1  0
 20 21  1  0
 21 22  1  0
 22 23  1  0
 22 24  1  0
 22 25  1  0
 25 26  1  0
 18 27  1  0
 27 28  2  0
 28 29  1  0
 29 30  2  0
 30 31  1  0
 31 32  1  0
 32 33  1  0
 33 34  1  0
 34 35  1  0
 35 36  1  0
 36 37  1  0
 37 38  1  0
 38 39  1  0
 30  3  1  0
 39 35  1  0
 28  5  1  0
 16  8  1  0
 26 19  1  0
M  END
$$$$
