
     RDKit          3D

 21 24  0  0  0  0  0  0  0  0999 V2000
  -16.1875   45.5544  -21.7392 C   0  0  0  0  0  0  0  0  0  0  0  0
  -16.8586   44.2271  -21.9364 C   0  0  0  0  0  0  0  0  0  0  0  0
  -16.0704   43.0945  -22.0487 C   0  0  0  0  0  0  0  0  0  0  0  0
  -16.6915   41.8579  -22.2322 C   0  0  0  0  0  0  0  0  0  0  0  0
  -18.0615   41.7461  -22.3028 C   0  0  0  0  0  0  0  0  0  0  0  0
  -18.6917   40.4535  -22.4938 C   0  0  0  0  0  0  0  0  0  0  0  0
  -18.1969   39.2662  -22.0051 C   0  0  0  0  0  0  0  0  0  0  0  0
  -18.8453   38.0569  -22.2202 C   0  0  0  0  0  0  0  0  0  0  0  0
  -20.0212   38.0353  -22.9442 C   0  0  0  0  0  0  0  0  0  0  0  0
  -20.4778   39.2084  -23.4071 N   0  0  0  0  0  0  0  0  0  0  0  0
  -19.8574   40.3557  -23.1998 N   0  0  0  0  0  0  0  0  0  0  0  0
  -20.5327   36.6772  -23.0518 C   0  0  0  0  0  0  0  0  0  0  0  0
  -21.6477   36.1054  -23.6535 C   0  0  0  0  0  0  0  0  0  0  0  0
  -21.9061   34.7515  -23.6051 C   0  0  0  0  0  0  0  0  0  0  0  0
  -21.0434   33.9068  -22.9415 C   0  0  0  0  0  0  0  0  0  0  0  0
  -19.9235   34.4541  -22.3329 C   0  0  0  0  0  0  0  0  0  0  0  0
  -19.6679   35.8090  -22.3832 C   0  0  0  0  0  0  0  0  0  0  0  0
  -18.5942   36.6740  -21.8522 C   0  0  0  0  0  0  0  0  0  0  0  0
  -17.6181   36.2862  -21.1887 O   0  0  0  0  0  0  0  0  0  0  0  0
  -18.8167   42.8844  -22.1884 C   0  0  0  0  0  0  0  0  0  0  0  0
  -18.2173   44.1385  -22.0035 C   0  0  0  0  0  0  0  0  0  0  0  0
  1  2  1  0
  2  3  2  0
  3  4  1  0
  4  5  2  0
  5  6  1  0
  6  7  2  0
  7  8  1  0
  8  9  2  0
  9 10  1  0
 10 11  2  0
  9 12  1  0
 12 13  2  0
 13 14  1  0
 14 15  2  0
 15 16  1  0
 16 17  2  0
 17 18  1  0
 18 19  2  0
  5 20  1  0
 20 21  2  0
 21  2  1  0
 11  6  1  0
 17 12  1  0
 18  8  1  0
M  END
$$$$
