
     RDKit          3D

 29 34  0  0  0  0  0  0  0  0999 V2000
  -21.2947   44.1553  -25.6321 C   0  0  0  0  0  0  0  0  0  0  0  0
  -20.7246   43.5428  -24.4529 N   0  0  0  0  0  0  0  0  0  0  0  0
  -21.1953   42.2316  -24.0687 C   0  0  0  0  0  0  0  0  0  0  0  0
  -20.7945   41.9420  -22.6452 C   0  0  0  0  0  0  0  0  0  0  0  0
  -21.6035   41.3586  -21.8728 O   0  0  0  0  0  0  0  0  0  0  0  0
  -19.5199   42.3087  -22.1384 N   0  0  0  0  0  0  0  0  0  0  0  0
  -18.8248   43.4028  -22.7891 C   0  0  2  0  0  0  0  0  0  0  0  0
  -18.2729   44.3495  -21.7195 C   0  0  0  0  0  0  0  0  0  0  0  0
  -17.3960   43.5193  -20.8531 C   0  0  0  0  0  0  0  0  0  0  0  0
  -17.7387   42.2397  -20.5341 C   0  0  0  0  0  0  0  0  0  0  0  0
  -16.7523   41.7642  -19.7467 N   0  0  0  0  0  0  0  0  0  0  0  0
  -15.8113   42.7089  -19.5692 C   0  0  0  0  0  0  0  0  0  0  0  0
  -14.6229   42.7414  -18.8690 C   0  0  0  0  0  0  0  0  0  0  0  0
  -13.8258   43.8861  -18.8599 C   0  0  0  0  0  0  0  0  0  0  0  0
  -14.2079   45.0111  -19.5508 C   0  0  0  0  0  0  0  0  0  0  0  0
  -15.3924   44.9803  -20.2493 C   0  0  0  0  0  0  0  0  0  0  0  0
  -16.1834   43.8434  -20.2580 C   0  0  0  0  0  0  0  0  0  0  0  0
  -18.9937   41.5722  -21.0145 C   0  0  1  0  0  0  0  0  0  0  0  0
  -19.9710   41.3884  -19.9161 C   0  0  0  0  0  0  0  0  0  0  0  0
  -21.1858   40.7873  -20.1518 C   0  0  0  0  0  0  0  0  0  0  0  0
  -22.1299   40.5910  -19.1732 C   0  0  0  0  0  0  0  0  0  0  0  0
  -21.8807   41.0033  -17.8853 C   0  0  0  0  0  0  0  0  0  0  0  0
  -20.6742   41.6095  -17.6116 C   0  0  0  0  0  0  0  0  0  0  0  0
  -19.7429   41.7952  -18.6112 C   0  0  0  0  0  0  0  0  0  0  0  0
  -20.6969   41.9144  -16.2599 O   0  0  0  0  0  0  0  0  0  0  0  0
  -22.0106   41.7507  -15.7373 C   0  0  0  0  0  0  0  0  0  0  0  0
  -22.6343   40.9419  -16.6956 O   0  0  0  0  0  0  0  0  0  0  0  0
  -19.7293   44.1599  -23.6542 C   0  0  0  0  0  0  0  0  0  0  0  0
  -19.6311   45.4118  -23.7016 O   0  0  0  0  0  0  0  0  0  0  0  0
  1  2  1  0
  2  3  1  0
  3  4  1  0
  4  5  2  0
  4  6  1  0
  6  7  1  0
  7  8  1  1
  8  9  1  0
  9 10  2  0
 10 11  1  0
 11 12  1  0
 12 13  2  0
 13 14  1  0
 14 15  2  0
 15 16  1  0
 16 17  2  0
 10 18  1  0
 18 19  1  1
 19 20  2  0
 20 21  1  0
 21 22  2  0
 22 23  1  0
 23 24  2  0
 23 25  1  0
 25 26  1  0
 26 27  1  0
  7 28  1  0
 28 29  2  0
 28  2  1  0
 18  6  1  0
 24 19  1  0
 17  9  1  0
 27 22  1  0
 17 12  1  0
M  END
$$$$
