
     RDKit          3D

 26 28  0  0  0  0  0  0  0  0999 V2000
  -21.7475   22.2175  -40.7386 C   0  0  0  0  0  0  0  0  0  0  0  0
  -21.0744   21.0782  -40.0500 C   0  0  0  0  0  0  0  0  0  0  0  0
  -19.8110   20.5915  -40.3178 C   0  0  0  0  0  0  0  0  0  0  0  0
  -19.5755   19.5291  -39.4498 C   0  0  0  0  0  0  0  0  0  0  0  0
  -18.3761   18.7051  -39.3622 C   0  0  0  0  0  0  0  0  0  0  0  0
  -18.3283   17.7779  -38.5351 O   0  0  0  0  0  0  0  0  0  0  0  0
  -17.2281   18.9644  -40.2432 C   0  0  0  0  0  0  0  0  0  0  0  0
  -16.1259   18.1680  -39.9254 O   0  0  0  0  0  0  0  0  0  0  0  0
  -15.2037   18.5086  -38.9289 C   0  0  0  0  0  0  0  0  0  0  0  0
  -15.6508   19.2471  -38.0112 O   0  0  0  0  0  0  0  0  0  0  0  0
  -13.8328   18.0447  -38.9512 C   0  0  0  0  0  0  0  0  0  0  0  0
  -13.1559   17.8788  -37.7696 C   0  0  0  0  0  0  0  0  0  0  0  0
  -11.8414   17.4366  -37.7434 C   0  0  0  0  0  0  0  0  0  0  0  0
  -11.2055   17.1591  -38.9326 C   0  0  0  0  0  0  0  0  0  0  0  0
  -11.8543   17.3148  -40.1293 C   0  0  0  0  0  0  0  0  0  0  0  0
  -13.1821   17.7631  -40.1248 C   0  0  0  0  0  0  0  0  0  0  0  0
  -13.7927   17.9042  -41.3526 O   0  0  0  0  0  0  0  0  0  0  0  0
  -20.7263   19.4272  -38.6908 C   0  0  0  0  0  0  0  0  0  0  0  0
  -20.9175   18.3978  -37.6082 C   0  0  0  0  0  0  0  0  0  0  0  0
  -21.6259   20.3574  -39.0515 N   0  0  0  0  0  0  0  0  0  0  0  0
  -22.9351   20.5611  -38.4900 C   0  0  0  0  0  0  0  0  0  0  0  0
  -23.9638   19.7085  -39.1325 C   0  0  0  0  0  0  0  0  0  0  0  0
  -23.9800   19.0747  -40.3519 C   0  0  0  0  0  0  0  0  0  0  0  0
  -25.0341   18.3627  -40.6944 C   0  0  0  0  0  0  0  0  0  0  0  0
  -26.1183   18.2264  -39.8852 C   0  0  0  0  0  0  0  0  0  0  0  0
  -25.5528   19.2542  -38.4423 S   0  0  0  0  0  0  0  0  0  0  0  0
  1  2  1  0
  2  3  2  0
  3  4  1  0
  4  5  1  0
  5  6  2  0
  5  7  1  0
  7  8  1  0
  8  9  1  0
  9 10  2  0
  9 11  1  0
 11 12  2  0
 12 13  1  0
 13 14  2  0
 14 15  1  0
 15 16  2  0
 16 17  1  0
  4 18  2  0
 18 19  1  0
 18 20  1  0
 20 21  1  0
 21 22  1  0
 22 23  2  0
 23 24  1  0
 24 25  2  0
 25 26  1  0
 20  2  1  0
 26 22  1  0
 16 11  1  0
M  END
$$$$
