
     RDKit          3D

 40 42  0  0  0  0  0  0  0  0999 V2000
  -17.3884   35.1144  -22.4715 C   0  0  0  0  0  0  0  0  0  0  0  0
  -17.9759   36.3916  -22.3876 O   0  0  0  0  0  0  0  0  0  0  0  0
  -19.3359   36.4787  -22.0854 C   0  0  0  0  0  0  0  0  0  0  0  0
  -20.1356   35.3908  -21.8585 C   0  0  0  0  0  0  0  0  0  0  0  0
  -21.4832   35.4946  -21.5630 C   0  0  0  0  0  0  0  0  0  0  0  0
  -22.0353   36.7561  -21.4957 C   0  0  0  0  0  0  0  0  0  0  0  0
  -21.2746   37.8779  -21.7149 C   0  0  0  0  0  0  0  0  0  0  0  0
  -19.9447   37.7500  -22.0060 C   0  0  0  0  0  0  0  0  0  0  0  0
  -19.1109   38.7980  -22.2378 O   0  0  0  0  0  0  0  0  0  0  0  0
  -19.2687   40.1286  -22.2616 C   0  0  0  0  0  0  0  0  0  0  0  0
  -19.1007   40.8476  -21.0763 C   0  0  0  0  0  0  0  0  0  0  0  0
  -18.8073   40.1571  -19.8600 N   0  0  0  0  0  0  0  0  0  0  0  0
  -18.6088   40.9881  -18.3677 S   0  0  0  0  0  6  0  0  0  0  0  0
  -18.4687   39.9377  -17.2759 O   0  0  0  0  0  0  0  0  0  0  0  0
  -19.8958   41.7460  -18.0409 O   0  0  0  0  0  0  0  0  0  0  0  0
  -17.2694   42.0887  -18.3891 C   0  0  0  0  0  0  0  0  0  0  0  0
  -16.0246   41.6421  -18.0067 C   0  0  0  0  0  0  0  0  0  0  0  0
  -14.9255   42.4775  -18.0118 C   0  0  0  0  0  0  0  0  0  0  0  0
  -15.0624   43.7975  -18.4101 C   0  0  0  0  0  0  0  0  0  0  0  0
  -13.8641   44.6852  -18.4083 C   0  0  0  0  0  0  0  0  0  0  0  0
  -12.6620   43.9090  -17.9125 C   0  0  0  0  0  0  0  0  0  0  0  0
  -13.5042   45.1323  -19.8280 C   0  0  0  0  0  0  0  0  0  0  0  0
  -14.0251   45.9122  -17.5757 C   0  0  0  0  0  0  0  0  0  0  0  0
  -16.2909   44.2478  -18.7899 C   0  0  0  0  0  0  0  0  0  0  0  0
  -17.4054   43.3974  -18.7819 C   0  0  0  0  0  0  0  0  0  0  0  0
  -19.2575   42.1785  -21.1408 N   0  0  0  0  0  0  0  0  0  0  0  0
  -19.5635   42.8328  -22.2689 C   0  0  0  0  0  0  0  0  0  0  0  0
  -19.7256   44.2770  -22.3276 C   0  0  0  0  0  0  0  0  0  0  0  0
  -19.5379   45.0144  -21.2380 N   0  0  0  0  0  0  0  0  0  0  0  0
  -19.6669   46.3556  -21.2474 C   0  0  0  0  0  0  0  0  0  0  0  0
  -20.0005   46.9976  -22.3961 C   0  0  0  0  0  0  0  0  0  0  0  0
  -20.1978   46.2387  -23.5290 C   0  0  0  0  0  0  0  0  0  0  0  0
  -20.0614   44.9004  -23.4907 N   0  0  0  0  0  0  0  0  0  0  0  0
  -19.7196   42.1116  -23.3883 N   0  0  0  0  0  0  0  0  0  0  0  0
  -19.5879   40.7776  -23.4476 C   0  0  0  0  0  0  0  0  0  0  0  0
  -19.7577   40.0764  -24.6283 O   0  0  0  0  0  0  0  0  0  0  0  0
  -20.0796   40.6178  -25.8477 C   0  0  0  0  0  0  0  0  0  0  0  0
  -21.3842   41.3280  -25.9717 C   0  0  0  0  0  0  0  0  0  0  0  0
  -21.5723   42.4142  -25.1582 O   0  0  0  0  0  0  0  0  0  0  0  0
  -18.2393   41.9400  -20.9969 O   0  0  0  0  0  0  0  0  0  0  0  0
  1  2  1  0
  2  3  1  0
  3  4  2  0
  4  5  1  0
  5  6  2  0
  6  7  1  0
  7  8  2  0
  8  9  1  0
  9 10  1  0
 10 11  1  0
 11 12  1  0
 12 13  1  0
 13 14  2  0
 13 15  2  0
 13 16  1  0
 16 17  2  0
 17 18  1  0
 18 19  2  0
 19 20  1  0
 20 21  1  0
 20 22  1  0
 20 23  1  0
 19 24  1  0
 24 25  2  0
 11 26  2  0
 26 27  1  0
 27 28  1  0
 28 29  2  0
 29 30  1  0
 30 31  2  0
 31 32  1  0
 32 33  2  0
 27 34  2  0
 34 35  1  0
 35 36  1  0
 36 37  1  0
 37 38  1  0
 38 39  1  0
  8  3  1  0
 35 10  2  0
 25 16  1  0
 33 28  1  0
M  END
$$$$
