
     RDKit          3D

 34 36  0  0  0  0  0  0  0  0999 V2000
  -22.2784   35.6325  -18.0608 C   0  0  0  0  0  0  0  0  0  0  0  0
  -22.4461   36.6345  -19.1562 C   0  0  0  0  0  0  0  0  0  0  0  0
  -21.9033   35.9936  -20.7395 S   0  0  0  0  0  6  0  0  0  0  0  0
  -23.0930   35.5868  -21.5449 O   0  0  0  0  0  0  0  0  0  0  0  0
  -20.9706   34.8703  -20.4577 O   0  0  0  0  0  0  0  0  0  0  0  0
  -20.9989   37.2815  -21.5297 C   0  0  0  0  0  0  0  0  0  0  0  0
  -19.6243   37.3460  -21.4486 C   0  0  0  0  0  0  0  0  0  0  0  0
  -18.9133   38.3550  -22.0674 C   0  0  0  0  0  0  0  0  0  0  0  0
  -19.5349   39.3496  -22.7973 C   0  0  0  0  0  0  0  0  0  0  0  0
  -18.7609   40.4313  -23.4596 C   0  0  0  0  0  0  0  0  0  0  0  0
  -18.3960   41.5000  -22.4668 C   0  0  0  0  0  0  0  0  0  0  0  0
  -18.8255   42.6635  -22.6185 O   0  0  0  0  0  0  0  0  0  0  0  0
  -17.5701   41.2076  -21.3583 N   0  0  0  0  0  0  0  0  0  0  0  0
  -16.8036   42.1354  -20.6043 C   0  0  0  0  0  0  0  0  0  0  0  0
  -16.5425   43.4242  -20.9210 C   0  0  0  0  0  0  0  0  0  0  0  0
  -15.7622   44.2068  -20.0578 C   0  0  0  0  0  0  0  0  0  0  0  0
  -15.4721   45.8693  -20.5458 Cl  0  0  0  0  0  0  0  0  0  0  0  0
  -15.2504   43.6984  -18.8891 C   0  0  0  0  0  0  0  0  0  0  0  0
  -14.4499   44.5531  -18.0342 C   0  0  0  0  0  0  0  0  0  0  0  0
  -14.9532   45.2413  -16.9505 C   0  0  0  0  0  0  0  0  0  0  0  0
  -14.1767   46.0490  -16.1497 C   0  0  0  0  0  0  0  0  0  0  0  0
  -12.8329   46.1935  -16.4212 C   0  0  0  0  0  0  0  0  0  0  0  0
  -12.2981   45.5158  -17.5019 C   0  0  0  0  0  0  0  0  0  0  0  0
  -13.0910   44.7072  -18.2983 C   0  0  0  0  0  0  0  0  0  0  0  0
  -12.5741   44.0269  -19.3762 O   0  0  0  0  0  0  0  0  0  0  0  0
  -12.0724   42.7194  -19.1776 C   0  0  0  0  0  0  0  0  0  0  0  0
  -13.1061   41.8587  -18.7948 F   0  0  0  0  0  0  0  0  0  0  0  0
  -11.5337   42.1930  -20.3558 F   0  0  0  0  0  0  0  0  0  0  0  0
  -11.1338   42.6558  -18.1710 F   0  0  0  0  0  0  0  0  0  0  0  0
  -15.5177   42.3850  -18.5683 C   0  0  0  0  0  0  0  0  0  0  0  0
  -14.8565   41.7458  -17.0687 Cl  0  0  0  0  0  0  0  0  0  0  0  0
  -16.2826   41.6087  -19.4091 C   0  0  0  0  0  0  0  0  0  0  0  0
  -20.9120   39.2754  -22.8720 C   0  0  0  0  0  0  0  0  0  0  0  0
  -21.6295   38.2692  -22.2557 C   0  0  0  0  0  0  0  0  0  0  0  0
  1  2  1  0
  2  3  1  0
  3  4  2  0
  3  5  2  0
  3  6  1  0
  6  7  2  0
  7  8  1  0
  8  9  2  0
  9 10  1  0
 10 11  1  0
 11 12  2  0
 11 13  1  0
 13 14  1  0
 14 15  2  0
 15 16  1  0
 16 17  1  0
 16 18  2  0
 18 19  1  0
 19 20  2  0
 20 21  1  0
 21 22  2  0
 22 23  1  0
 23 24  2  0
 24 25  1  0
 25 26  1  0
 26 27  1  0
 26 28  1  0
 26 29  1  0
 18 30  1  0
 30 31  1  0
 30 32  2  0
  9 33  1  0
 33 34  2  0
 34  6  1  0
 32 14  1  0
 24 19  1  0
M  END
$$$$
