
     RDKit          3D

 19 21  0  0  0  0  0  0  0  0999 V2000
  -24.5553   32.5678  -26.1262 O   0  0  0  0  0  0  0  0  0  0  0  0
  -25.2657   31.9516  -26.9511 C   0  0  0  0  0  0  0  0  0  0  0  0
  -26.6485   31.8333  -26.8251 O   0  0  0  0  0  0  0  0  0  0  0  0
  -24.5886   31.3230  -28.1125 C   0  0  0  0  0  0  0  0  0  0  0  0
  -24.8007   29.8952  -28.1048 N   0  0  0  0  0  0  0  0  0  0  0  0
  -23.9244   29.0706  -27.3341 C   0  0  0  0  0  0  0  0  0  0  0  0
  -22.9818   29.5773  -26.6715 O   0  0  0  0  0  0  0  0  0  0  0  0
  -24.1181   27.6285  -27.3106 C   0  0  0  0  0  0  0  0  0  0  0  0
  -23.2782   26.8296  -26.5708 C   0  0  0  0  0  0  0  0  0  0  0  0
  -23.4663   25.4789  -26.5538 C   0  0  0  0  0  0  0  0  0  0  0  0
  -24.4887   24.8895  -27.2678 C   0  0  0  0  0  0  0  0  0  0  0  0
  -25.3468   25.6819  -28.0207 C   0  0  0  0  0  0  0  0  0  0  0  0
  -26.3818   25.1393  -28.7499 C   0  0  0  0  0  0  0  0  0  0  0  0
  -27.2398   25.9130  -29.5006 C   0  0  0  0  0  0  0  0  0  0  0  0
  -27.0608   27.2746  -29.5259 C   0  0  0  0  0  0  0  0  0  0  0  0
  -26.0148   27.8420  -28.7911 C   0  0  0  0  0  0  0  0  0  0  0  0
  -25.1550   27.0673  -28.0390 C   0  0  0  0  0  0  0  0  0  0  0  0
  -25.8571   29.3064  -28.8450 C   0  0  0  0  0  0  0  0  0  0  0  0
  -26.6223   30.0344  -29.5189 O   0  0  0  0  0  0  0  0  0  0  0  0
  1  2  2  0
  2  3  1  0
  2  4  1  0
  4  5  1  0
  5  6  1  0
  6  7  2  0
  6  8  1  0
  8  9  1  0
  9 10  2  0
 10 11  1  0
 11 12  2  0
 12 13  1  0
 13 14  2  0
 14 15  1  0
 15 16  2  0
 16 17  1  0
 16 18  1  0
 18 19  2  0
 18  5  1  0
 17  8  2  0
 17 12  1  0
M  END
$$$$
