
     RDKit          3D

  8  8  0  0  0  0  0  0  0  0999 V2000
  -17.2791   40.2896  -23.6271 N   0  0  0  0  0  0  0  0  0  0  0  0
  -16.9963   39.4752  -22.4615 C   0  0  0  0  0  0  0  0  0  0  0  0
  -18.2268   39.1291  -21.7033 C   0  0  0  0  0  0  0  0  0  0  0  0
  -18.5522   39.3431  -20.3976 C   0  0  0  0  0  0  0  0  0  0  0  0
  -19.8121   38.8273  -20.2053 C   0  0  0  0  0  0  0  0  0  0  0  0
  -20.5277   38.8336  -19.0137 O   0  0  0  0  0  0  0  0  0  0  0  0
  -20.1953   38.3291  -21.3816 N   0  0  0  0  0  0  0  0  0  0  0  0
  -19.2511   38.5193  -22.2361 O   0  0  0  0  0  0  0  0  0  0  0  0
  1  2  1  0
  2  3  1  0
  3  4  2  0
  4  5  1  0
  5  6  1  0
  5  7  2  0
  7  8  1  0
  8  3  1  0
M  END
$$$$
