
     RDKit          3D

 28 31  0  0  0  0  0  0  0  0999 V2000
  -18.2141   17.8810  -42.4311 C   0  0  0  0  0  0  0  0  0  0  0  0
  -18.0188   19.2978  -41.2986 S   0  0  0  0  0  0  0  0  0  0  0  0
  -16.5251   19.0762  -40.3258 C   0  0  0  0  0  0  0  0  0  0  0  0
  -15.5185   18.3028  -40.8770 C   0  0  0  0  0  0  0  0  0  0  0  0
  -14.3697   18.1289  -40.1364 C   0  0  0  0  0  0  0  0  0  0  0  0
  -14.2387   18.7131  -38.8845 C   0  0  0  0  0  0  0  0  0  0  0  0
  -15.2370   19.4895  -38.3197 C   0  0  0  0  0  0  0  0  0  0  0  0
  -15.1136   20.0884  -37.0464 N   0  0  0  0  0  0  0  0  0  0  0  0
  -16.2595   20.1601  -36.1435 C   0  0  0  0  0  0  0  0  0  0  0  0
  -16.8924   21.2240  -36.2210 O   0  0  0  0  0  0  0  0  0  0  0  0
  -16.5588   19.0442  -35.2698 C   0  0  0  0  0  0  0  0  0  0  0  0
  -15.8369   18.7716  -34.0332 C   0  0  0  0  0  0  0  0  0  0  0  0
  -16.3045   17.7452  -33.1017 C   0  0  0  0  0  0  0  0  0  0  0  0
  -17.1967   16.7550  -33.4232 C   0  0  0  0  0  0  0  0  0  0  0  0
  -17.6775   16.4885  -34.7882 C   0  0  0  0  0  0  0  0  0  0  0  0
  -17.6547   15.8642  -32.4814 N   0  0  0  0  0  0  0  0  0  0  0  0
  -17.2357   15.9432  -31.2265 C   0  0  0  0  0  0  0  0  0  0  0  0
  -17.5263   15.1904  -30.0916 C   0  0  0  0  0  0  0  0  0  0  0  0
  -18.3328   14.1093  -29.8344 C   0  0  0  0  0  0  0  0  0  0  0  0
  -18.3941   13.5880  -28.5534 C   0  0  0  0  0  0  0  0  0  0  0  0
  -17.6418   14.1572  -27.5317 C   0  0  0  0  0  0  0  0  0  0  0  0
  -16.8788   15.2039  -27.8440 N   0  0  0  0  0  0  0  0  0  0  0  0
  -16.7959   15.7364  -29.0801 C   0  0  0  0  0  0  0  0  0  0  0  0
  -16.1161   16.7608  -29.6208 N   0  0  0  0  0  0  0  0  0  0  0  0
  -16.3698   16.8983  -30.9108 N   0  0  0  0  0  0  0  0  0  0  0  0
  -15.8828   17.8012  -31.7798 C   0  0  0  0  0  0  0  0  0  0  0  0
  -14.9016   18.8134  -31.2752 C   0  0  0  0  0  0  0  0  0  0  0  0
  -16.3838   19.6523  -39.0802 C   0  0  0  0  0  0  0  0  0  0  0  0
  1  2  1  0
  2  3  1  0
  3  4  2  0
  4  5  1  0
  5  6  2  0
  6  7  1  0
  7  8  1  0
  8  9  1  0
  9 10  2  0
  9 11  1  0
 11 12  1  0
 12 13  1  0
 13 14  1  0
 14 15  1  0
 14 16  2  0
 16 17  1  0
 17 18  2  0
 18 19  1  0
 19 20  2  0
 20 21  1  0
 21 22  2  0
 22 23  1  0
 23 24  2  0
 24 25  1  0
 25 26  1  0
 26 27  1  0
  7 28  2  0
 28  3  1  0
 26 13  2  0
 25 17  1  0
 23 18  1  0
M  END
$$$$
