
     RDKit          3D

 18 19  0  0  0  0  0  0  0  0999 V2000
  -17.9252   36.9550  -22.8227 N   0  0  0  0  0  0  0  0  0  0  0  0
  -17.7613   38.2527  -22.2735 C   0  0  0  0  0  0  0  0  0  0  0  0
  -16.9086   39.0610  -22.7301 O   0  0  0  0  0  0  0  0  0  0  0  0
  -18.6049   38.6233  -21.1690 N   0  0  0  0  0  0  0  0  0  0  0  0
  -18.6062   40.0141  -20.7467 C   0  0  0  0  0  0  0  0  0  0  0  0
  -17.5089   41.2277  -21.2930 S   0  0  0  0  0  0  0  0  0  0  0  0
  -18.1418   42.5806  -20.3560 C   0  0  0  0  0  0  0  0  0  0  0  0
  -17.6619   43.9406  -20.3437 C   0  0  0  0  0  0  0  0  0  0  0  0
  -16.3234   44.2215  -20.3576 C   0  0  0  0  0  0  0  0  0  0  0  0
  -15.8743   45.5271  -20.3457 C   0  0  0  0  0  0  0  0  0  0  0  0
  -16.8075   46.5354  -20.3196 C   0  0  0  0  0  0  0  0  0  0  0  0
  -18.1570   46.2703  -20.3054 C   0  0  0  0  0  0  0  0  0  0  0  0
  -18.5728   44.9653  -20.3177 C   0  0  0  0  0  0  0  0  0  0  0  0
  -19.1713   41.9918  -19.6769 C   0  0  0  0  0  0  0  0  0  0  0  0
  -19.4314   40.6855  -19.8560 C   0  0  0  0  0  0  0  0  0  0  0  0
  -20.5330   39.9954  -19.1476 C   0  0  0  0  0  0  0  0  0  0  0  0
  -21.3658   40.6579  -18.2017 N   0  0  0  0  0  0  0  0  0  0  0  0
  -20.7583   38.7994  -19.3683 O   0  0  0  0  0  0  0  0  0  0  0  0
  1  2  1  0
  2  3  2  0
  2  4  1  0
  4  5  1  0
  5  6  1  0
  6  7  1  0
  7  8  1  0
  8  9  2  0
  9 10  1  0
 10 11  2  0
 11 12  1  0
 12 13  2  0
  7 14  2  0
 14 15  1  0
 15 16  1  0
 16 17  1  0
 16 18  2  0
 15  5  2  0
 13  8  1  0
M  END
$$$$
