
     RDKit          3D

 31 35  0  0  0  0  0  0  0  0999 V2000
  -19.7026   45.0785  -26.1043 C   0  0  0  0  0  0  0  0  0  0  0  0
  -20.6195   43.9677  -25.7121 C   0  0  0  0  0  0  0  0  0  0  0  0
  -21.6599   43.7627  -26.4041 O   0  0  0  0  0  0  0  0  0  0  0  0
  -20.3142   43.1716  -24.5865 N   0  0  0  0  0  0  0  0  0  0  0  0
  -21.2694   42.1903  -24.1390 C   0  0  0  0  0  0  0  0  0  0  0  0
  -20.4777   40.8894  -23.9357 C   0  0  0  0  0  0  0  0  0  0  0  0
  -19.5720   41.1290  -22.7971 C   0  0  0  0  0  0  0  0  0  0  0  0
  -18.8976   42.3383  -22.8062 C   0  0  0  0  0  0  0  0  0  0  0  0
  -18.1180   42.3519  -21.6690 C   0  0  0  0  0  0  0  0  0  0  0  0
  -17.2755   43.4408  -21.3285 N   0  0  0  0  0  0  0  0  0  0  0  0
  -16.3717   43.4619  -20.2399 C   0  0  0  0  0  0  0  0  0  0  0  0
  -16.3278   42.4778  -19.3017 C   0  0  0  0  0  0  0  0  0  0  0  0
  -15.4292   42.5213  -18.2379 C   0  0  0  0  0  0  0  0  0  0  0  0
  -14.5475   43.5626  -18.0913 C   0  0  0  0  0  0  0  0  0  0  0  0
  -13.6339   43.5479  -16.9572 C   0  0  0  0  0  0  0  0  0  0  0  0
  -12.7598   44.5719  -16.6295 C   0  0  0  0  0  0  0  0  0  0  0  0
  -12.0986   44.1822  -15.5319 N   0  0  0  0  0  0  0  0  0  0  0  0
  -12.4748   42.9910  -15.1253 N   0  0  0  0  0  0  0  0  0  0  0  0
  -11.9716   42.2520  -13.9668 C   0  0  0  0  0  0  0  0  0  0  0  0
  -13.4238   42.5833  -15.9948 C   0  0  0  0  0  0  0  0  0  0  0  0
  -14.5801   44.5575  -19.0252 C   0  0  0  0  0  0  0  0  0  0  0  0
  -15.4686   44.5075  -20.0709 C   0  0  0  0  0  0  0  0  0  0  0  0
  -15.4733   45.5084  -20.9764 F   0  0  0  0  0  0  0  0  0  0  0  0
  -18.3523   41.2019  -21.0611 N   0  0  0  0  0  0  0  0  0  0  0  0
  -19.2191   40.4531  -21.7172 N   0  0  0  0  0  0  0  0  0  0  0  0
  -19.6499   39.1730  -21.2937 C   0  0  1  0  0  0  0  0  0  0  0  0
  -18.3941   38.3902  -20.8769 C   0  0  0  0  0  0  0  0  0  0  0  0
  -18.9927   37.3671  -19.9749 C   0  0  0  0  0  0  0  0  0  0  0  0
  -20.1818   37.8279  -19.5029 O   0  0  0  0  0  0  0  0  0  0  0  0
  -20.4535   39.0784  -20.0619 C   0  0  0  0  0  0  0  0  0  0  0  0
  -19.0791   43.3297  -23.8956 C   0  0  0  0  0  0  0  0  0  0  0  0
  1  2  1  0
  2  3  2  0
  2  4  1  0
  4  5  1  0
  5  6  1  0
  6  7  1  0
  7  8  2  0
  8  9  1  0
  9 10  1  0
 10 11  1  0
 11 12  2  0
 12 13  1  0
 13 14  2  0
 14 15  1  0
 15 16  1  0
 16 17  2  0
 17 18  1  0
 18 19  1  0
 18 20  1  0
 14 21  1  0
 21 22  2  0
 22 23  1  0
  9 24  2  0
 24 25  1  0
 26 25  1  1
 26 27  1  0
 27 28  1  0
 28 29  1  0
 29 30  1  0
  8 31  1  0
 31  4  1  0
 25  7  1  0
 30 26  1  0
 22 11  1  0
 20 15  2  0
M  END
$$$$
