
     RDKit          3D

 14 14  0  0  0  0  0  0  0  0999 V2000
  -18.3052   32.5432  -22.8543 O   0  0  0  0  0  0  0  0  0  0  0  0
  -18.5346   33.9009  -22.5995 C   0  0  0  0  0  0  0  0  0  0  0  0
  -19.9287   34.1970  -22.2092 C   0  0  0  0  0  0  0  0  0  0  0  0
  -20.1705   35.5790  -21.7806 N   0  0  0  0  0  0  0  0  0  0  0  0
  -21.1622   36.0455  -22.7516 C   0  0  0  0  0  0  0  0  0  0  0  0
  -21.5569   37.4612  -22.6172 C   0  0  2  0  0  0  0  0  0  0  0  0
  -21.7473   37.9833  -23.9185 O   0  0  0  0  0  0  0  0  0  0  0  0
  -20.4590   38.3078  -21.9983 C   0  0  1  0  0  0  0  0  0  0  0  0
  -20.6246   38.3259  -20.6369 O   0  0  0  0  0  0  0  0  0  0  0  0
  -19.1529   37.7345  -22.4378 C   0  0  2  0  0  0  0  0  0  0  0  0
  -19.1171   37.5531  -23.8192 O   0  0  0  0  0  0  0  0  0  0  0  0
  -18.9683   36.3445  -21.8266 C   0  0  1  0  0  0  0  0  0  0  0  0
  -18.2568   36.5464  -20.5343 C   0  0  0  0  0  0  0  0  0  0  0  0
  -16.8894   36.7619  -20.8300 O   0  0  0  0  0  0  0  0  0  0  0  0
  1  2  1  0
  2  3  1  0
  3  4  1  0
  4  5  1  0
  5  6  1  0
  6  7  1  6
  6  8  1  0
  8  9  1  1
  8 10  1  0
 10 11  1  6
 10 12  1  0
 12 13  1  1
 13 14  1  0
 12  4  1  0
M  END
$$$$
