
     RDKit          3D

 38 40  0  0  0  0  0  0  0  0999 V2000
  -15.3042   15.0024  -32.2791 C   0  0  0  0  0  0  0  0  0  0  0  0
  -16.4929   15.9247  -32.1795 C   0  0  0  0  0  0  0  0  0  0  0  0
  -17.3607   15.9228  -33.4084 C   0  0  0  0  0  0  0  0  0  0  0  0
  -18.4785   16.8729  -33.4096 C   0  0  0  0  0  0  0  0  0  0  0  0
  -19.2620   17.0111  -34.7025 C   0  0  2  0  0  0  0  0  0  0  0  0
  -19.6607   15.6015  -35.0721 C   0  0  0  0  0  0  0  0  0  0  0  0
  -19.9220   14.7637  -33.8118 C   0  0  0  0  0  0  0  0  0  0  0  0
  -18.2033   17.5145  -35.6795 C   0  0  0  0  0  0  0  0  0  0  0  0
  -18.2810   19.1789  -36.1251 S   0  0  0  0  0  6  0  0  0  0  0  0
  -17.4419   19.4258  -37.3732 O   0  0  0  0  0  0  0  0  0  0  0  0
  -17.6260   20.0372  -35.0543 O   0  0  0  0  0  0  0  0  0  0  0  0
  -19.8367   19.8248  -36.4175 C   0  0  0  0  0  0  0  0  0  0  0  0
  -19.7632   20.9808  -37.1963 C   0  0  0  0  0  0  0  0  0  0  0  0
  -20.9138   21.6533  -37.5384 C   0  0  0  0  0  0  0  0  0  0  0  0
  -20.8681   22.9100  -38.3722 C   0  0  0  0  0  0  0  0  0  0  0  0
  -20.4064   22.6062  -39.6977 N   0  0  0  0  0  0  0  0  0  0  0  0
  -20.4567   23.8206  -40.5360 C   0  0  0  0  0  0  0  0  0  0  0  0
  -21.7098   24.5668  -40.2617 C   0  0  0  0  0  0  0  0  0  0  0  0
  -22.9692   23.8683  -40.5362 C   0  0  0  0  0  0  0  0  0  0  0  0
  -23.6569   23.4544  -39.5461 O   0  0  0  0  0  0  0  0  0  0  0  0
  -23.4858   23.6173  -41.7956 O   0  0  0  0  0  0  0  0  0  0  0  0
  -20.2234   23.4185  -41.9560 C   0  0  0  0  0  0  0  0  0  0  0  0
  -20.1786   24.5210  -42.9185 C   0  0  0  0  0  0  0  0  0  0  0  0
  -20.6534   24.4510  -44.0840 O   0  0  0  0  0  0  0  0  0  0  0  0
  -19.5911   25.7463  -42.5922 O   0  0  0  0  0  0  0  0  0  0  0  0
  -22.1548   21.2204  -37.1343 C   0  0  0  0  0  0  0  0  0  0  0  0
  -23.3125   21.9107  -37.4879 O   0  0  0  0  0  0  0  0  0  0  0  0
  -24.4221   21.2776  -38.0492 C   0  0  0  0  0  0  0  0  0  0  0  0
  -22.2369   20.0977  -36.3772 C   0  0  0  0  0  0  0  0  0  0  0  0
  -21.0861   19.4213  -36.0321 C   0  0  0  0  0  0  0  0  0  0  0  0
  -21.3788   18.2154  -35.1866 C   0  0  1  0  0  0  0  0  0  0  0  0
  -22.1690   17.2043  -35.8642 C   0  0  0  0  0  0  0  0  0  0  0  0
  -23.3820   16.8329  -35.3317 C   0  0  0  0  0  0  0  0  0  0  0  0
  -24.1239   15.8534  -35.9524 C   0  0  0  0  0  0  0  0  0  0  0  0
  -23.6942   15.2247  -37.0979 C   0  0  0  0  0  0  0  0  0  0  0  0
  -22.4850   15.5758  -37.6532 C   0  0  0  0  0  0  0  0  0  0  0  0
  -21.7728   16.5564  -37.0064 C   0  0  0  0  0  0  0  0  0  0  0  0
  -20.2780   17.9114  -34.4178 N   0  0  0  0  0  0  0  0  0  0  0  0
  1  2  1  0
  2  3  1  0
  3  4  1  0
  5  4  1  1
  5  6  1  0
  6  7  1  0
  5  8  1  0
  8  9  1  0
  9 10  2  0
  9 11  2  0
  9 12  1  0
 12 13  2  0
 13 14  1  0
 14 15  1  0
 15 16  1  0
 16 17  1  0
 17 18  1  0
 18 19  1  0
 19 20  2  0
 19 21  1  0
 17 22  1  0
 22 23  1  0
 23 24  2  0
 23 25  1  0
 14 26  2  0
 26 27  1  0
 27 28  1  0
 26 29  1  0
 29 30  2  0
 30 31  1  0
 31 32  1  6
 32 33  2  0
 33 34  1  0
 34 35  2  0
 35 36  1  0
 36 37  2  0
 31 38  1  0
 38  5  1  0
 30 12  1  0
 37 32  1  0
M  END
$$$$
