
     RDKit          3D

 37 41  0  0  0  0  0  0  0  0999 V2000
  -23.2195   27.2123  -26.0261 C   0  0  0  0  0  0  0  0  0  0  0  0
  -23.7592   27.2491  -27.4294 C   0  0  0  0  0  0  0  0  0  0  0  0
  -25.0044   26.7640  -27.7236 C   0  0  0  0  0  0  0  0  0  0  0  0
  -25.5114   26.7909  -29.0033 C   0  0  0  0  0  0  0  0  0  0  0  0
  -24.7574   27.3167  -30.0247 C   0  0  0  0  0  0  0  0  0  0  0  0
  -25.3431   27.3188  -31.3382 N   0  0  0  0  0  0  0  0  0  0  0  0
  -25.6069   28.5204  -32.0365 C   0  0  0  0  0  0  0  0  0  0  0  0
  -25.1283   29.5794  -31.5320 O   0  0  0  0  0  0  0  0  0  0  0  0
  -26.3782   28.6136  -33.2724 C   0  0  0  0  0  0  0  0  0  0  0  0
  -25.8181   28.4935  -34.5240 C   0  0  0  0  0  0  0  0  0  0  0  0
  -26.5782   28.5844  -35.6887 C   0  0  0  0  0  0  0  0  0  0  0  0
  -27.9358   28.8004  -35.6405 C   0  0  0  0  0  0  0  0  0  0  0  0
  -28.8197   28.9072  -36.8119 C   0  0  0  0  0  0  0  0  0  0  0  0
  -29.3584   27.6743  -37.2650 N   0  0  0  0  0  0  0  0  0  0  0  0
  -28.4301   26.6179  -37.4625 C   0  0  0  0  0  0  0  0  0  0  0  0
  -29.1012   25.5170  -38.2572 C   0  0  0  0  0  0  0  0  0  0  0  0
  -30.3994   25.1815  -37.7747 N   0  0  0  0  0  0  0  0  0  0  0  0
  -30.4039   24.3882  -36.5731 C   0  0  0  0  0  0  0  0  0  0  0  0
  -31.2775   26.3092  -37.6162 C   0  0  0  0  0  0  0  0  0  0  0  0
  -30.6052   27.2936  -36.6823 C   0  0  0  0  0  0  0  0  0  0  0  0
  -28.5045   28.9223  -34.3782 C   0  0  0  0  0  0  0  0  0  0  0  0
  -27.7499   28.8319  -33.2279 C   0  0  0  0  0  0  0  0  0  0  0  0
  -23.4979   27.8135  -29.7594 C   0  0  0  0  0  0  0  0  0  0  0  0
  -22.9963   27.7852  -28.4845 C   0  0  0  0  0  0  0  0  0  0  0  0
  -21.7300   28.2741  -28.1427 N   0  0  0  0  0  0  0  0  0  0  0  0
  -21.4319   29.6331  -27.9488 C   0  0  0  0  0  0  0  0  0  0  0  0
  -20.2422   30.1936  -27.8082 N   0  0  0  0  0  0  0  0  0  0  0  0
  -20.0396   31.4934  -27.6293 C   0  0  0  0  0  0  0  0  0  0  0  0
  -21.1329   32.3565  -27.5812 C   0  0  0  0  0  0  0  0  0  0  0  0
  -22.3817   31.8090  -27.7235 C   0  0  0  0  0  0  0  0  0  0  0  0
  -23.5986   32.6037  -27.6926 C   0  0  0  0  0  0  0  0  0  0  0  0
  -24.7369   32.2108  -28.3389 C   0  0  0  0  0  0  0  0  0  0  0  0
  -25.9038   32.9996  -28.2924 C   0  0  0  0  0  0  0  0  0  0  0  0
  -25.8685   34.1625  -27.5874 C   0  0  0  0  0  0  0  0  0  0  0  0
  -24.7570   34.5555  -26.9508 N   0  0  0  0  0  0  0  0  0  0  0  0
  -23.6511   33.7957  -27.0022 C   0  0  0  0  0  0  0  0  0  0  0  0
  -22.4973   30.4824  -27.9009 N   0  0  0  0  0  0  0  0  0  0  0  0
  1  2  1  0
  2  3  2  0
  3  4  1  0
  4  5  2  0
  5  6  1  0
  6  7  1  0
  7  8  2  0
  7  9  1  0
  9 10  2  0
 10 11  1  0
 11 12  2  0
 12 13  1  0
 13 14  1  0
 14 15  1  0
 15 16  1  0
 16 17  1  0
 17 18  1  0
 17 19  1  0
 19 20  1  0
 12 21  1  0
 21 22  2  0
  5 23  1  0
 23 24  2  0
 24 25  1  0
 25 26  1  0
 26 27  2  0
 27 28  1  0
 28 29  2  0
 29 30  1  0
 30 31  1  0
 31 32  2  0
 32 33  1  0
 33 34  2  0
 34 35  1  0
 35 36  2  0
 30 37  2  0
 24  2  1  0
 37 26  1  0
 22  9  1  0
 36 31  1  0
 20 14  1  0
M  END
$$$$
