
     RDKit          3D

 20 22  0  0  0  0  0  0  0  0999 V2000
  -26.0691   28.7137  -33.9592 N   0  0  0  0  0  0  0  0  0  0  0  0
  -25.1794   27.7647  -34.5137 C   0  0  0  0  0  0  0  0  0  0  0  0
  -23.8241   27.7801  -34.2036 C   0  0  0  0  0  0  0  0  0  0  0  0
  -22.9961   26.8340  -34.7693 C   0  0  0  0  0  0  0  0  0  0  0  0
  -23.4781   25.8744  -35.6338 C   0  0  0  0  0  0  0  0  0  0  0  0
  -22.6752   24.8887  -36.2365 N   0  0  0  0  0  0  0  0  0  0  0  0
  -24.8393   25.8993  -35.9135 C   0  0  0  0  0  0  0  0  0  0  0  0
  -25.7039   26.8151  -35.3796 C   0  0  0  0  0  0  0  0  0  0  0  0
  -27.1297   26.8231  -35.6868 C   0  0  0  0  0  0  0  0  0  0  0  0
  -27.8488   27.6994  -35.1522 O   0  0  0  0  0  0  0  0  0  0  0  0
  -27.6602   25.8184  -36.5976 C   0  0  0  0  0  0  0  0  0  0  0  0
  -29.0086   25.7968  -36.9111 C   0  0  0  0  0  0  0  0  0  0  0  0
  -29.8746   26.7482  -36.3495 O   0  0  0  0  0  0  0  0  0  0  0  0
  -29.5241   24.8468  -37.7754 C   0  0  0  0  0  0  0  0  0  0  0  0
  -28.6991   23.8982  -38.3438 C   0  0  0  0  0  0  0  0  0  0  0  0
  -27.3584   23.9408  -38.0154 C   0  0  0  0  0  0  0  0  0  0  0  0
  -26.5315   22.9912  -38.5841 O   0  0  0  0  0  0  0  0  0  0  0  0
  -26.8075   24.8631  -37.1652 C   0  0  0  0  0  0  0  0  0  0  0  0
  -25.3900   24.8932  -36.8297 C   0  0  0  0  0  0  0  0  0  0  0  0
  -24.6236   24.0534  -37.3251 O   0  0  0  0  0  0  0  0  0  0  0  0
  1  2  1  0
  2  3  2  0
  3  4  1  0
  4  5  2  0
  5  6  1  0
  5  7  1  0
  7  8  2  0
  8  9  1  0
  9 10  2  0
  9 11  1  0
 11 12  2  0
 12 13  1  0
 12 14  1  0
 14 15  2  0
 15 16  1  0
 16 17  1  0
 16 18  2  0
 18 19  1  0
 19 20  2  0
  8  2  1  0
 18 11  1  0
 19  7  1  0
M  END
$$$$
