
     RDKit          3D

 18 19  0  0  0  0  0  0  0  0999 V2000
  -18.3731   29.5771  -26.3008 O   0  0  0  0  0  0  0  0  0  0  0  0
  -19.6644   30.1564  -25.9290 B   0  0  0  0  0  0  0  0  0  0  0  0
  -20.6510   29.2473  -25.3544 O   0  0  0  0  0  0  0  0  0  0  0  0
  -19.8616   31.6899  -26.0212 C   0  0  0  0  0  0  0  0  0  0  0  0
  -21.1292   32.2746  -26.0256 C   0  0  0  0  0  0  0  0  0  0  0  0
  -21.3090   33.6453  -26.1069 C   0  0  0  0  0  0  0  0  0  0  0  0
  -20.2248   34.4657  -26.1857 C   0  0  0  0  0  0  0  0  0  0  0  0
  -20.3342   35.9300  -26.2777 C   0  0  0  0  0  0  0  0  0  0  0  0
  -19.5979   36.7679  -25.4868 C   0  0  0  0  0  0  0  0  0  0  0  0
  -19.7225   38.1335  -25.5962 C   0  0  0  0  0  0  0  0  0  0  0  0
  -20.5897   38.7287  -26.5019 C   0  0  0  0  0  0  0  0  0  0  0  0
  -20.7046   40.2882  -26.5971 B   0  0  0  0  0  0  0  0  0  0  0  0
  -21.9672   40.8056  -27.1544 O   0  0  0  0  0  0  0  0  0  0  0  0
  -20.1502   41.0722  -25.4868 O   0  0  0  0  0  0  0  0  0  0  0  0
  -21.3283   37.8801  -27.2952 C   0  0  0  0  0  0  0  0  0  0  0  0
  -21.2006   36.5116  -27.1823 C   0  0  0  0  0  0  0  0  0  0  0  0
  -18.9725   33.8984  -26.1813 C   0  0  0  0  0  0  0  0  0  0  0  0
  -18.7641   32.5339  -26.1013 C   0  0  0  0  0  0  0  0  0  0  0  0
  1  2  1  0
  2  3  1  0
  2  4  1  0
  4  5  2  0
  5  6  1  0
  6  7  2  0
  7  8  1  0
  8  9  2  0
  9 10  1  0
 10 11  2  0
 11 12  1  0
 12 13  1  0
 12 14  1  0
 11 15  1  0
 15 16  2  0
  7 17  1  0
 17 18  2  0
 18  4  1  0
 16  8  1  0
M  END
$$$$
