
     RDKit          3D

 13 13  0  0  0  0  0  0  0  0999 V2000
   -4.1167   47.2910  -38.6476 C   0  0  0  0  0  0  0  0  0  0  0  0
   -4.1175   47.9997  -37.4136 N   0  0  0  0  0  0  0  0  0  0  0  0
   -5.3673   48.4619  -36.9339 C   0  0  0  0  0  0  0  0  0  0  0  0
   -5.9438   49.4199  -37.9785 C   0  0  0  0  0  0  0  0  0  0  0  0
   -6.4119   47.4325  -36.6630 C   0  0  0  0  0  0  0  0  0  0  0  0
   -5.9495   46.2648  -35.8507 C   0  0  0  0  0  0  0  0  0  0  0  0
   -5.3769   46.9305  -34.6212 C   0  0  0  0  0  0  0  0  0  0  0  0
   -5.8925   48.3530  -34.6640 C   0  0  0  0  0  0  0  0  0  0  0  0
   -7.1590   48.1555  -35.5165 C   0  0  0  0  0  0  0  0  0  0  0  0
   -5.1023   49.1979  -35.6363 C   0  0  0  0  0  0  0  0  0  0  0  0
   -5.6973   50.5797  -35.6221 C   0  0  0  0  0  0  0  0  0  0  0  0
   -3.6552   49.3036  -35.2836 C   0  0  0  0  0  0  0  0  0  0  0  0
   -4.9507   48.3371  -36.8821 Cl  0  0  0  0  0  0  0  0  0  0  0  0
  1  2  1  0
  2  3  1  0
  3  4  1  0
  3  5  1  0
  5  6  1  0
  6  7  1  0
  7  8  1  0
  8  9  1  0
  8 10  1  0
 10 11  1  0
 10 12  1  0
 10  3  1  0
  9  5  1  0
M  END
$$$$
