
     RDKit          3D

 36 41  0  0  0  0  0  0  0  0999 V2000
  -14.1229   44.4067  -19.5189 C   0  0  0  0  0  0  0  0  0  0  0  0
  -15.3377   43.5528  -19.6875 C   0  0  0  0  0  0  0  0  0  0  0  0
  -15.2273   42.3839  -20.1663 O   0  0  0  0  0  0  0  0  0  0  0  0
  -16.6002   43.9818  -19.3409 O   0  0  0  0  0  0  0  0  0  0  0  0
  -17.7709   43.2479  -19.5642 C   0  0  0  0  0  0  0  0  0  0  0  0
  -18.1779   43.0972  -20.9560 C   0  0  0  0  0  0  0  0  0  0  0  0
  -17.4210   43.5282  -21.8201 O   0  0  0  0  0  0  0  0  0  0  0  0
  -19.4507   42.4487  -21.3377 C   0  0  1  0  0  0  0  0  0  0  0  0
  -20.3995   42.5654  -20.3573 O   0  0  0  0  0  0  0  0  0  0  0  0
  -21.3346   43.4635  -20.7642 C   0  0  0  0  0  0  0  0  0  0  0  0
  -21.2199   44.8537  -20.1646 C   0  0  0  0  0  0  0  0  0  0  0  0
  -22.5351   45.4884  -20.5777 C   0  0  0  0  0  0  0  0  0  0  0  0
  -23.5020   44.3666  -20.8394 C   0  0  0  0  0  0  0  0  0  0  0  0
  -22.7539   43.1189  -20.3471 C   0  0  0  0  0  0  0  0  0  0  0  0
  -21.2869   43.6269  -22.1203 O   0  0  0  0  0  0  0  0  0  0  0  0
  -20.1190   43.0327  -22.5527 C   0  0  2  0  0  0  0  0  0  0  0  0
  -20.6039   41.8506  -23.4158 C   0  0  0  0  0  0  0  0  0  0  0  0
  -20.5765   40.7444  -22.4061 C   0  0  1  0  0  0  0  0  0  0  0  0
  -20.6662   39.3550  -22.9756 C   0  0  2  0  0  0  0  0  0  0  0  0
  -22.1431   39.1191  -23.2492 C   0  0  0  0  0  0  0  0  0  0  0  0
  -22.4726   37.7139  -23.5802 C   0  0  0  0  0  0  0  0  0  0  0  0
  -21.6886   36.7129  -22.8257 C   0  0  0  0  0  0  0  0  0  0  0  0
  -22.2091   35.5917  -22.3733 C   0  0  0  0  0  0  0  0  0  0  0  0
  -21.4336   34.6032  -21.6279 C   0  0  0  0  0  0  0  0  0  0  0  0
  -21.9008   33.5355  -21.1892 O   0  0  0  0  0  0  0  0  0  0  0  0
  -20.0282   34.8908  -21.3870 C   0  0  0  0  0  0  0  0  0  0  0  0
  -19.5224   36.0020  -21.8380 C   0  0  0  0  0  0  0  0  0  0  0  0
  -20.2579   37.0095  -22.5816 C   0  0  1  0  0  0  0  0  0  0  0  0
  -19.6326   37.0830  -23.9852 C   0  0  0  0  0  0  0  0  0  0  0  0
  -20.2394   38.3760  -21.9314 C   0  0  2  0  0  0  0  0  0  0  0  0
  -21.2332   38.3536  -20.9543 F   0  0  0  0  0  0  0  0  0  0  0  0
  -18.9524   38.6600  -21.2689 C   0  0  1  0  0  0  0  0  0  0  0  0
  -17.8122   38.3963  -22.0127 O   0  0  0  0  0  0  0  0  0  0  0  0
  -18.8944   40.0687  -20.6860 C   0  0  0  0  0  0  0  0  0  0  0  0
  -19.2280   41.0174  -21.7773 C   0  0  2  0  0  0  0  0  0  0  0  0
  -18.1329   41.0122  -22.8065 C   0  0  0  0  0  0  0  0  0  0  0  0
  1  2  1  0
  2  3  2  0
  2  4  1  0
  4  5  1  0
  5  6  1  0
  6  7  2  0
  8  6  1  1
  8  9  1  0
  9 10  1  0
 10 11  1  0
 11 12  1  0
 12 13  1  0
 13 14  1  0
 10 15  1  0
 15 16  1  0
 16 17  1  6
 18 17  1  6
 18 19  1  0
 19 20  1  1
 20 21  1  0
 21 22  1  0
 22 23  2  0
 23 24  1  0
 24 25  2  0
 24 26  1  0
 26 27  2  0
 27 28  1  0
 28 29  1  6
 28 30  1  0
 30 31  1  1
 30 32  1  0
 32 33  1  6
 32 34  1  0
 34 35  1  0
 35 36  1  6
 16  8  1  0
 35 18  1  0
 35  8  1  0
 14 10  1  0
 30 19  1  0
 28 22  1  0
M  END
$$$$
