
     RDKit          3D

 31 34  0  0  0  0  0  0  0  0999 V2000
  -23.9445   32.2312  -35.9012 C   0  0  0  0  0  0  0  0  0  0  0  0
  -24.7560   30.9373  -35.9225 C   0  0  0  0  0  0  0  0  0  0  0  0
  -24.1261   29.9367  -35.1789 O   0  0  0  0  0  0  0  0  0  0  0  0
  -24.6821   28.6930  -35.0422 C   0  0  0  0  0  0  0  0  0  0  0  0
  -25.7768   28.4009  -35.5767 O   0  0  0  0  0  0  0  0  0  0  0  0
  -23.9573   27.6509  -34.2244 C   0  0  0  0  0  0  0  0  0  0  0  0
  -24.9531   26.5326  -33.9008 C   0  0  0  0  0  0  0  0  0  0  0  0
  -24.3899   25.2902  -34.4200 N   0  0  0  0  0  0  0  0  0  0  0  0
  -24.9061   24.7306  -35.6239 C   0  0  0  0  0  0  0  0  0  0  0  0
  -23.9663   24.2994  -36.5488 C   0  0  0  0  0  0  0  0  0  0  0  0
  -24.4073   23.7553  -37.7587 C   0  0  0  0  0  0  0  0  0  0  0  0
  -23.4821   23.2941  -38.7144 N   0  0  0  0  0  0  0  0  0  0  0  0
  -24.0472   22.8898  -39.9783 C   0  0  0  0  0  0  0  0  0  0  0  0
  -23.0188   22.2809  -40.8894 C   0  0  0  0  0  0  0  0  0  0  0  0
  -21.9006   23.1566  -41.2210 C   0  0  0  0  0  0  0  0  0  0  0  0
  -21.5811   22.9840  -42.5761 C   0  0  0  0  0  0  0  0  0  0  0  0
  -20.5398   23.7219  -43.1061 C   0  0  0  0  0  0  0  0  0  0  0  0
  -19.8050   24.6215  -42.3458 C   0  0  0  0  0  0  0  0  0  0  0  0
  -20.1558   24.7560  -41.0211 C   0  0  0  0  0  0  0  0  0  0  0  0
  -21.1840   24.0385  -40.4649 C   0  0  0  0  0  0  0  0  0  0  0  0
  -21.3354   24.3860  -39.0395 C   0  0  0  0  0  0  0  0  0  0  0  0
  -22.0994   23.2709  -38.3369 C   0  0  0  0  0  0  0  0  0  0  0  0
  -25.7430   23.6836  -37.9530 N   0  0  0  0  0  0  0  0  0  0  0  0
  -26.6557   24.1024  -37.0554 C   0  0  0  0  0  0  0  0  0  0  0  0
  -28.0895   24.0241  -37.2647 C   0  0  0  0  0  0  0  0  0  0  0  0
  -28.9678   24.4526  -36.2978 C   0  0  0  0  0  0  0  0  0  0  0  0
  -30.3223   24.3898  -36.5139 C   0  0  0  0  0  0  0  0  0  0  0  0
  -30.7897   23.8958  -37.7025 C   0  0  0  0  0  0  0  0  0  0  0  0
  -29.9005   23.4694  -38.6638 C   0  0  0  0  0  0  0  0  0  0  0  0
  -28.5665   23.5429  -38.4246 N   0  0  0  0  0  0  0  0  0  0  0  0
  -26.2092   24.6211  -35.8999 N   0  0  0  0  0  0  0  0  0  0  0  0
  1  2  1  0
  2  3  1  0
  3  4  1  0
  4  5  2  0
  4  6  1  0
  6  7  1  0
  7  8  1  0
  8  9  1  0
  9 10  2  0
 10 11  1  0
 11 12  1  0
 12 13  1  0
 13 14  1  0
 14 15  1  0
 15 16  2  0
 16 17  1  0
 17 18  2  0
 18 19  1  0
 19 20  2  0
 20 21  1  0
 21 22  1  0
 11 23  2  0
 23 24  1  0
 24 25  1  0
 25 26  2  0
 26 27  1  0
 27 28  2  0
 28 29  1  0
 29 30  2  0
 24 31  2  0
 31  9  1  0
 22 12  1  0
 30 25  1  0
 20 15  1  0
M  END
$$$$
