
     RDKit          3D

 27 29  0  0  0  0  0  0  0  0999 V2000
  -27.5294   14.1238  -21.2697 O   0  0  0  0  0  0  0  0  0  0  0  0
  -28.7678   14.0640  -21.4776 C   0  0  0  0  0  0  0  0  0  0  0  0
  -29.2501   14.6327  -22.6473 O   0  0  0  0  0  0  0  0  0  0  0  0
  -28.9413   15.9083  -23.0365 C   0  0  0  0  0  0  0  0  0  0  0  0
  -29.9279   16.7808  -23.4078 C   0  0  0  0  0  0  0  0  0  0  0  0
  -29.6660   18.0043  -23.7842 O   0  0  0  0  0  0  0  0  0  0  0  0
  -28.4569   18.4905  -23.8369 C   0  0  0  0  0  0  0  0  0  0  0  0
  -28.1748   19.8900  -24.2688 C   0  0  0  0  0  0  0  0  0  0  0  0
  -28.1143   19.9247  -26.0948 S   0  0  0  0  0  0  0  0  0  0  0  0
  -26.4042   20.1344  -26.6053 C   0  0  0  0  0  0  0  0  0  0  0  0
  -25.3793   19.6270  -25.9004 N   0  0  0  0  0  0  0  0  0  0  0  0
  -24.1056   19.8241  -26.3475 C   0  0  0  0  0  0  0  0  0  0  0  0
  -23.8773   20.5319  -27.5024 C   0  0  0  0  0  0  0  0  0  0  0  0
  -24.9470   21.0466  -28.2141 C   0  0  0  0  0  0  0  0  0  0  0  0
  -26.1810   20.8263  -27.7343 N   0  0  0  0  0  0  0  0  0  0  0  0
  -27.3893   17.6937  -23.4832 C   0  0  0  0  0  0  0  0  0  0  0  0
  -27.6508   16.3764  -23.0762 C   0  0  0  0  0  0  0  0  0  0  0  0
  -26.6910   15.6448  -22.7533 O   0  0  0  0  0  0  0  0  0  0  0  0
  -29.6504   13.4134  -20.5076 C   0  0  0  0  0  0  0  0  0  0  0  0
  -29.2785   12.2784  -19.8221 C   0  0  0  0  0  0  0  0  0  0  0  0
  -30.1173   11.6713  -18.9076 C   0  0  0  0  0  0  0  0  0  0  0  0
  -31.3708   12.1813  -18.6421 C   0  0  0  0  0  0  0  0  0  0  0  0
  -32.2221   11.5382  -17.6917 N   0  0  0  0  0  4  0  0  0  0  0  0
  -33.3098   12.0273  -17.3353 O   0  0  0  0  0  0  0  0  0  0  0  0
  -31.8492   10.3543  -17.1487 O   0  0  0  0  0  1  0  0  0  0  0  0
  -31.7410   13.3177  -19.3297 C   0  0  0  0  0  0  0  0  0  0  0  0
  -30.9017   13.9274  -20.2465 C   0  0  0  0  0  0  0  0  0  0  0  0
  1  2  2  0
  2  3  1  0
  3  4  1  0
  4  5  2  0
  5  6  1  0
  6  7  1  0
  7  8  1  0
  8  9  1  0
  9 10  1  0
 10 11  2  0
 11 12  1  0
 12 13  2  0
 13 14  1  0
 14 15  2  0
  7 16  2  0
 16 17  1  0
 17 18  2  0
  2 19  1  0
 19 20  2  0
 20 21  1  0
 21 22  2  0
 22 23  1  0
 23 24  2  0
 23 25  1  0
 22 26  1  0
 26 27  2  0
 17  4  1  0
 27 19  1  0
 15 10  1  0
M  CHG  2  23   1  25  -1
M  END
$$$$
