
     RDKit          3D

 21 22  0  0  0  0  0  0  0  0999 V2000
  -20.8755   38.0863  -21.8033 O   0  0  0  0  0  0  0  0  0  0  0  0
  -19.8478   37.6427  -21.2331 C   0  0  0  0  0  0  0  0  0  0  0  0
  -19.9980   36.9700  -20.0513 O   0  0  0  0  0  0  0  0  0  0  0  0
  -18.5168   37.8412  -21.8209 C   0  0  0  0  0  0  0  0  0  0  0  0
  -18.1669   39.2339  -21.9139 N   0  0  0  0  0  0  0  0  0  0  0  0
  -17.5693   39.8949  -20.8200 C   0  0  0  0  0  0  0  0  0  0  0  0
  -17.3133   39.3174  -19.7252 O   0  0  0  0  0  0  0  0  0  0  0  0
  -17.2196   41.3197  -20.9352 C   0  0  0  0  0  0  0  0  0  0  0  0
  -16.5375   41.9588  -19.9614 N   0  0  0  0  0  0  0  0  0  0  0  0
  -16.2066   43.2595  -20.0427 C   0  0  0  0  0  0  0  0  0  0  0  0
  -16.5666   43.9894  -21.1537 C   0  0  0  0  0  0  0  0  0  0  0  0
  -16.1884   45.4056  -21.2084 C   0  0  0  0  0  0  0  0  0  0  0  0
  -14.8640   45.7993  -21.2031 C   0  0  0  0  0  0  0  0  0  0  0  0
  -14.5265   47.1430  -21.2540 C   0  0  0  0  0  0  0  0  0  0  0  0
  -15.4789   48.1396  -21.3118 C   0  0  0  0  0  0  0  0  0  0  0  0
  -16.8072   47.7412  -21.3169 C   0  0  0  0  0  0  0  0  0  0  0  0
  -18.0392   49.0074  -21.3905 Cl  0  0  0  0  0  0  0  0  0  0  0  0
  -17.1409   46.4029  -21.2661 C   0  0  0  0  0  0  0  0  0  0  0  0
  -17.2660   43.3886  -22.1829 C   0  0  0  0  0  0  0  0  0  0  0  0
  -17.5786   42.0525  -22.0457 C   0  0  0  0  0  0  0  0  0  0  0  0
  -18.2889   41.4072  -23.0714 O   0  0  0  0  0  0  0  0  0  0  0  0
  1  2  2  0
  2  3  1  0
  2  4  1  0
  4  5  1  0
  5  6  1  0
  6  7  2  0
  6  8  1  0
  8  9  2  0
  9 10  1  0
 10 11  2  0
 11 12  1  0
 12 13  2  0
 13 14  1  0
 14 15  2  0
 15 16  1  0
 16 17  1  0
 16 18  2  0
 11 19  1  0
 19 20  2  0
 20 21  1  0
 20  8  1  0
 18 12  1  0
M  END
$$$$
