
     RDKit          3D

 27 29  0  0  0  0  0  0  0  0999 V2000
  -16.0490   45.7083  -19.1427 C   0  0  0  0  0  0  0  0  0  0  0  0
  -16.7399   45.0450  -20.2924 C   0  0  0  0  0  0  0  0  0  0  0  0
  -17.1383   43.6744  -19.9349 N   0  0  0  0  0  0  0  0  0  0  0  0
  -17.8970   42.8857  -20.8279 C   0  0  0  0  0  0  0  0  0  0  0  0
  -18.2379   43.3633  -21.9210 O   0  0  0  0  0  0  0  0  0  0  0  0
  -18.2638   41.5393  -20.4555 C   0  0  0  0  0  0  0  0  0  0  0  0
  -18.2567   40.9437  -19.2511 N   0  0  0  0  0  0  0  0  0  0  0  0
  -18.6666   39.6959  -19.3278 N   0  0  0  0  0  0  0  0  0  0  0  0
  -18.9715   39.3999  -20.6164 C   0  0  0  0  0  0  0  0  0  0  0  0
  -19.4620   38.1340  -21.1478 C   0  0  0  0  0  0  0  0  0  0  0  0
  -18.5833   37.2243  -21.6812 C   0  0  0  0  0  0  0  0  0  0  0  0
  -19.0450   36.0095  -22.1935 C   0  0  0  0  0  0  0  0  0  0  0  0
  -17.9499   34.8304  -22.8784 Cl  0  0  0  0  0  0  0  0  0  0  0  0
  -20.3888   35.6995  -22.1742 C   0  0  0  0  0  0  0  0  0  0  0  0
  -20.8868   34.5151  -22.6677 O   0  0  0  0  0  0  0  0  0  0  0  0
  -21.2914   36.6095  -21.6377 C   0  0  0  0  0  0  0  0  0  0  0  0
  -20.7964   37.7910  -21.1451 C   0  0  0  0  0  0  0  0  0  0  0  0
  -21.6973   38.7000  -20.6093 O   0  0  0  0  0  0  0  0  0  0  0  0
  -18.7186   40.5565  -21.3244 C   0  0  0  0  0  0  0  0  0  0  0  0
  -18.9081   40.7044  -22.7664 C   0  0  0  0  0  0  0  0  0  0  0  0
  -20.1073   41.1123  -23.3238 C   0  0  0  0  0  0  0  0  0  0  0  0
  -20.3110   41.2587  -24.6661 C   0  0  0  0  0  0  0  0  0  0  0  0
  -19.2706   40.9888  -25.5467 C   0  0  0  0  0  0  0  0  0  0  0  0
  -19.4553   41.1311  -26.9258 O   0  0  0  0  0  0  0  0  0  0  0  0
  -20.6272   40.6362  -27.5266 C   0  0  0  0  0  0  0  0  0  0  0  0
  -18.0703   40.5818  -25.0116 C   0  0  0  0  0  0  0  0  0  0  0  0
  -17.8766   40.4374  -23.6484 C   0  0  0  0  0  0  0  0  0  0  0  0
  1  2  1  0
  2  3  1  0
  3  4  1  0
  4  5  2  0
  4  6  1  0
  6  7  2  0
  7  8  1  0
  8  9  1  0
  9 10  1  0
 10 11  2  0
 11 12  1  0
 12 13  1  0
 12 14  2  0
 14 15  1  0
 14 16  1  0
 16 17  2  0
 17 18  1  0
  9 19  2  0
 19 20  1  0
 20 21  2  0
 21 22  1  0
 22 23  2  0
 23 24  1  0
 24 25  1  0
 23 26  1  0
 26 27  2  0
 19  6  1  0
 27 20  1  0
 17 10  1  0
M  END
$$$$
