
     RDKit          3D

 31 35  0  0  0  0  0  0  0  0999 V2000
  -23.1228   43.8330  -26.8423 C   0  0  0  0  0  0  0  0  0  0  0  0
  -22.9010   43.4942  -25.4958 N   0  0  0  0  0  0  0  0  0  0  0  0
  -24.0246   42.9610  -24.7951 C   0  0  0  0  0  0  0  0  0  0  0  0
  -21.9482   44.1772  -24.7281 C   0  0  0  0  0  0  0  0  0  0  0  0
  -20.8647   43.3779  -24.0748 C   0  0  0  0  0  0  0  0  0  0  0  0
  -19.8628   44.1590  -23.3119 C   0  0  0  0  0  0  0  0  0  0  0  0
  -19.2961   43.3760  -22.2208 N   0  0  0  0  0  0  0  0  0  0  0  0
  -19.8043   42.2225  -21.7605 C   0  0  0  0  0  0  0  0  0  0  0  0
  -18.9977   41.7862  -20.6975 C   0  0  0  0  0  0  0  0  0  0  0  0
  -19.1818   40.5684  -19.9170 C   0  0  0  0  0  0  0  0  0  0  0  0
  -19.4371   39.3392  -20.3580 C   0  0  0  0  0  0  0  0  0  0  0  0
  -19.5712   39.0224  -21.7652 C   0  0  0  0  0  0  0  0  0  0  0  0
  -18.7423   39.5401  -22.7770 C   0  0  0  0  0  0  0  0  0  0  0  0
  -19.1566   39.0309  -23.9421 N   0  0  0  0  0  0  0  0  0  0  0  0
  -20.1956   38.2172  -23.7841 C   0  0  0  0  0  0  0  0  0  0  0  0
  -20.9402   37.4872  -24.6884 C   0  0  0  0  0  0  0  0  0  0  0  0
  -21.9916   36.7286  -24.1467 C   0  0  0  0  0  0  0  0  0  0  0  0
  -22.2757   36.7039  -22.7975 C   0  0  0  0  0  0  0  0  0  0  0  0
  -21.5025   37.4506  -21.9375 C   0  0  0  0  0  0  0  0  0  0  0  0
  -20.4617   38.2080  -22.4178 C   0  0  0  0  0  0  0  0  0  0  0  0
  -19.5561   38.3829  -19.2826 C   0  0  0  0  0  0  0  0  0  0  0  0
  -19.7866   37.1411  -19.2931 O   0  0  0  0  0  0  0  0  0  0  0  0
  -19.3505   39.1255  -18.0594 N   0  0  0  0  0  0  0  0  0  0  0  0
  -19.1239   40.4592  -18.4661 C   0  0  0  0  0  0  0  0  0  0  0  0
  -18.9013   41.4175  -17.6638 O   0  0  0  0  0  0  0  0  0  0  0  0
  -18.0098   42.7331  -20.5726 C   0  0  0  0  0  0  0  0  0  0  0  0
  -16.9337   42.8714  -19.7431 C   0  0  0  0  0  0  0  0  0  0  0  0
  -16.0731   43.9560  -19.8512 C   0  0  0  0  0  0  0  0  0  0  0  0
  -16.2952   44.9283  -20.8175 C   0  0  0  0  0  0  0  0  0  0  0  0
  -17.3681   44.8156  -21.6655 C   0  0  0  0  0  0  0  0  0  0  0  0
  -18.2080   43.7303  -21.5380 C   0  0  0  0  0  0  0  0  0  0  0  0
  1  2  1  0
  2  3  1  0
  2  4  1  0
  4  5  1  0
  5  6  1  0
  6  7  1  0
  7  8  1  0
  8  9  2  0
  9 10  1  0
 10 11  2  0
 11 12  1  0
 12 13  2  0
 13 14  1  0
 14 15  1  0
 15 16  2  0
 16 17  1  0
 17 18  2  0
 18 19  1  0
 19 20  2  0
 11 21  1  0
 21 22  2  0
 21 23  1  0
 23 24  1  0
 24 25  2  0
  9 26  1  0
 26 27  2  0
 27 28  1  0
 28 29  2  0
 29 30  1  0
 30 31  2  0
 31  7  1  0
 24 10  1  0
 31 26  1  0
 20 12  1  0
 20 15  1  0
M  END
$$$$
