
     RDKit          3D

 26 30  0  0  0  0  0  0  0  0999 V2000
  -18.6482   13.2698  -31.1218 C   0  0  0  0  0  0  0  0  0  0  0  0
  -18.7620   14.6116  -30.5053 C   0  0  0  0  0  0  0  0  0  0  0  0
  -17.7630   15.2696  -29.8059 C   0  0  0  0  0  0  0  0  0  0  0  0
  -16.4090   14.8155  -29.5195 C   0  0  0  0  0  0  0  0  0  0  0  0
  -15.3310   15.5929  -29.8815 C   0  0  0  0  0  0  0  0  0  0  0  0
  -14.0318   15.1722  -29.6145 C   0  0  0  0  0  0  0  0  0  0  0  0
  -13.8280   13.9624  -28.9800 C   0  0  0  0  0  0  0  0  0  0  0  0
  -14.9020   13.1672  -28.6085 C   0  0  0  0  0  0  0  0  0  0  0  0
  -16.1754   13.6130  -28.8876 C   0  0  0  0  0  0  0  0  0  0  0  0
  -14.3945   11.9444  -27.9557 C   0  0  0  0  0  0  0  0  0  0  0  0
  -12.9594   12.0797  -27.9718 N   0  0  0  0  0  0  0  0  0  0  0  0
  -12.0400   11.1127  -27.4361 C   0  0  0  0  0  0  0  0  0  0  0  0
  -11.1406   11.5124  -26.3001 C   0  0  0  0  0  0  0  0  0  0  0  0
  -10.5609   11.2963  -27.6532 C   0  0  0  0  0  0  0  0  0  0  0  0
  -12.5922   13.2989  -28.5895 C   0  0  0  0  0  0  0  0  0  0  0  0
  -11.4204   13.7187  -28.7628 O   0  0  0  0  0  0  0  0  0  0  0  0
  -18.2720   16.4305  -29.4271 N   0  0  0  0  0  0  0  0  0  0  0  0
  -19.5170   16.4899  -29.8665 N   0  0  0  0  0  0  0  0  0  0  0  0
  -19.8432   15.3938  -30.5279 N   0  0  0  0  0  0  0  0  0  0  0  0
  -21.1043   15.1138  -31.1402 C   0  0  0  0  0  0  0  0  0  0  0  0
  -21.2939   15.4252  -32.4682 C   0  0  0  0  0  0  0  0  0  0  0  0
  -22.5349   15.1304  -33.0037 C   0  0  0  0  0  0  0  0  0  0  0  0
  -23.5434   14.5543  -32.2623 C   0  0  0  0  0  0  0  0  0  0  0  0
  -23.3374   14.2584  -30.9677 N   0  0  0  0  0  0  0  0  0  0  0  0
  -22.1514   14.5338  -30.4338 C   0  0  0  0  0  0  0  0  0  0  0  0
  -21.9714   14.2215  -29.1150 F   0  0  0  0  0  0  0  0  0  0  0  0
  1  2  1  0
  2  3  2  0
  3  4  1  0
  4  5  2  0
  5  6  1  0
  6  7  2  0
  7  8  1  0
  8  9  2  0
  8 10  1  0
 10 11  1  0
 11 12  1  0
 12 13  1  0
 13 14  1  0
 11 15  1  0
 15 16  2  0
  3 17  1  0
 17 18  2  0
 18 19  1  0
 19 20  1  0
 20 21  2  0
 21 22  1  0
 22 23  2  0
 23 24  1  0
 24 25  2  0
 25 26  1  0
 19  2  1  0
 25 20  1  0
  9  4  1  0
 14 12  1  0
 15  7  1  0
M  END
$$$$
