
     RDKit          3D

 24 26  0  0  0  0  0  0  0  0999 V2000
  -19.8191   16.4699  -34.8482 C   0  0  0  0  0  0  0  0  0  0  0  0
  -19.1852   16.3923  -33.5986 O   0  0  0  0  0  0  0  0  0  0  0  0
  -19.6185   15.4695  -32.6590 C   0  0  0  0  0  0  0  0  0  0  0  0
  -20.3453   14.3562  -33.0640 C   0  0  0  0  0  0  0  0  0  0  0  0
  -20.7819   13.4379  -32.1561 C   0  0  0  0  0  0  0  0  0  0  0  0
  -20.4830   13.6476  -30.8445 C   0  0  0  0  0  0  0  0  0  0  0  0
  -19.7766   14.7208  -30.4116 C   0  0  0  0  0  0  0  0  0  0  0  0
  -19.3249   15.6680  -31.3395 C   0  0  0  0  0  0  0  0  0  0  0  0
  -18.4224   17.0017  -30.7105 S   0  0  0  0  0  6  0  0  0  0  0  0
  -19.0838   18.2990  -31.1173 O   0  0  0  0  0  0  0  0  0  0  0  0
  -18.5276   16.9580  -29.1828 O   0  0  0  0  0  0  0  0  0  0  0  0
  -16.7791   17.0215  -31.0924 N   0  0  0  0  0  0  0  0  0  0  0  0
  -15.8925   15.9739  -30.7678 C   0  0  0  0  0  0  0  0  0  0  0  0
  -14.7399   15.7278  -31.4527 C   0  0  0  0  0  0  0  0  0  0  0  0
  -13.9617   14.6460  -31.0401 C   0  0  0  0  0  0  0  0  0  0  0  0
  -14.3124   13.8275  -29.9787 C   0  0  0  0  0  0  0  0  0  0  0  0
  -15.4752   14.0899  -29.3021 C   0  0  0  0  0  0  0  0  0  0  0  0
  -16.2719   15.1557  -29.6842 C   0  0  0  0  0  0  0  0  0  0  0  0
  -15.9371   13.2886  -28.1692 C   0  0  0  0  0  0  0  0  0  0  0  0
  -15.0868   12.1984  -27.8047 N   0  0  0  0  0  0  0  0  0  0  0  0
  -15.4858   11.3361  -26.6618 C   0  0  0  0  0  0  0  0  0  0  0  0
  -13.8894   11.9224  -28.4960 C   0  0  0  0  0  0  0  0  0  0  0  0
  -13.1986   10.9332  -28.1018 O   0  0  0  0  0  0  0  0  0  0  0  0
  -13.4991   12.7321  -29.5808 N   0  0  0  0  0  0  0  0  0  0  0  0
  1  2  1  0
  2  3  1  0
  3  4  2  0
  4  5  1  0
  5  6  2  0
  6  7  1  0
  7  8  2  0
  8  9  1  0
  9 10  2  0
  9 11  2  0
  9 12  1  0
 12 13  1  0
 13 14  2  0
 14 15  1  0
 15 16  2  0
 16 17  1  0
 17 18  2  0
 17 19  1  0
 19 20  1  0
 20 21  1  0
 20 22  1  0
 22 23  2  0
 22 24  1  0
  8  3  1  0
 18 13  1  0
 24 16  1  0
M  END
$$$$
