
     RDKit          3D

 18 19  0  0  0  0  0  0  0  0999 V2000
  -19.7959   37.8664  -21.5997 O   0  0  0  0  0  0  0  0  0  0  0  0
  -19.8679   38.7495  -20.7233 C   0  0  0  0  0  0  0  0  0  0  0  0
  -20.4669   38.7926  -19.4552 N   0  0  0  0  0  0  0  0  0  0  0  0
  -20.0499   39.8175  -18.5982 C   0  0  0  0  0  0  0  0  0  0  0  0
  -20.5106   39.9855  -17.4110 O   0  0  0  0  0  0  0  0  0  0  0  0
  -19.0435   40.7112  -19.1306 C   0  0  0  0  0  0  0  0  0  0  0  0
  -18.2275   41.5602  -18.5408 C   0  0  0  0  0  0  0  0  0  0  0  0
  -17.3548   42.4052  -19.3141 C   0  0  0  0  0  0  0  0  0  0  0  0
  -17.6969   42.7788  -20.5862 C   0  0  0  0  0  0  0  0  0  0  0  0
  -16.7964   43.5744  -21.3061 C   0  0  0  0  0  0  0  0  0  0  0  0
  -15.6006   43.9774  -20.7669 C   0  0  0  0  0  0  0  0  0  0  0  0
  -15.2663   43.5964  -19.4860 C   0  0  0  0  0  0  0  0  0  0  0  0
  -13.9695   44.0344  -18.9187 C   0  0  0  0  0  0  0  0  0  0  0  0
  -12.9545   43.3290  -19.5521 F   0  0  0  0  0  0  0  0  0  0  0  0
  -13.7767   45.3925  -19.0823 F   0  0  0  0  0  0  0  0  0  0  0  0
  -13.9074   43.7408  -17.5834 F   0  0  0  0  0  0  0  0  0  0  0  0
  -16.1540   42.8160  -18.7853 C   0  0  0  0  0  0  0  0  0  0  0  0
  -19.1176   40.3827  -20.9196 S   0  0  0  0  0  0  0  0  0  0  0  0
  1  2  2  0
  2  3  1  0
  3  4  1  0
  4  5  2  0
  4  6  1  0
  6  7  2  0
  7  8  1  0
  8  9  2  0
  9 10  1  0
 10 11  2  0
 11 12  1  0
 12 13  1  0
 13 14  1  0
 13 15  1  0
 13 16  1  0
 12 17  2  0
  6 18  1  0
 18  2  1  0
 17  8  1  0
M  END
$$$$
