
     RDKit          3D

 33 36  0  0  0  0  0  0  0  0999 V2000
  -25.1970   15.3920  -26.0549 C   0  0  0  0  0  0  0  0  0  0  0  0
  -24.0019   14.4906  -25.9111 C   0  0  0  0  0  0  0  0  0  0  0  0
  -24.3879   13.0386  -26.1842 C   0  0  0  0  0  0  0  0  0  0  0  0
  -23.0012   14.8392  -26.8947 N   0  0  0  0  0  0  0  0  0  0  0  0
  -23.0178   14.3614  -28.2320 C   0  0  0  0  0  0  0  0  0  0  0  0
  -24.1071   14.4623  -28.8521 O   0  0  0  0  0  0  0  0  0  0  0  0
  -21.8887   13.7963  -28.8651 N   0  0  0  0  0  0  0  0  0  0  0  0
  -21.6912   12.3964  -29.1687 C   0  0  0  0  0  0  0  0  0  0  0  0
  -20.8133   12.3076  -30.3783 C   0  0  0  0  0  0  0  0  0  0  0  0
  -20.3915   13.7463  -30.5846 C   0  0  2  0  0  0  0  0  0  0  0  0
  -19.0661   13.8719  -31.0946 N   0  0  0  0  0  0  0  0  0  0  0  0
  -18.3737   15.1041  -30.9723 C   0  0  0  0  0  0  0  0  0  0  0  0
  -19.0663   16.1605  -30.6789 N   0  0  0  0  0  0  0  0  0  0  0  0
  -18.6273   17.5264  -30.4979 C   0  0  0  0  0  0  0  0  0  0  0  0
  -19.4937   18.3211  -29.8121 C   0  0  0  0  0  0  0  0  0  0  0  0
  -19.1897   19.6631  -29.5849 C   0  0  0  0  0  0  0  0  0  0  0  0
  -20.0671   20.4564  -28.8938 F   0  0  0  0  0  0  0  0  0  0  0  0
  -18.0048   20.1880  -30.0576 C   0  0  0  0  0  0  0  0  0  0  0  0
  -17.1120   19.4019  -30.7545 C   0  0  0  0  0  0  0  0  0  0  0  0
  -17.4605   18.0962  -30.9476 C   0  0  0  0  0  0  0  0  0  0  0  0
  -16.4075   17.4315  -31.6835 N   0  0  0  0  0  0  0  0  0  0  0  0
  -15.6377   18.1848  -32.5960 C   0  0  0  0  0  0  0  0  0  0  0  0
  -15.9073   17.7472  -34.0644 C   0  0  0  0  0  0  0  0  0  0  0  0
  -15.8674   16.3437  -34.1377 F   0  0  0  0  0  0  0  0  0  0  0  0
  -14.8814   18.1785  -34.8797 F   0  0  0  0  0  0  0  0  0  0  0  0
  -16.0741   16.0296  -31.5381 C   0  0  0  0  0  0  0  0  0  0  0  0
  -14.7363   15.8043  -31.7435 C   0  0  0  0  0  0  0  0  0  0  0  0
  -14.2413   14.5482  -31.6266 C   0  0  0  0  0  0  0  0  0  0  0  0
  -15.0927   13.5100  -31.3001 C   0  0  0  0  0  0  0  0  0  0  0  0
  -14.4581   11.8712  -31.1452 Cl  0  0  0  0  0  0  0  0  0  0  0  0
  -16.4485   13.6981  -31.0840 C   0  0  0  0  0  0  0  0  0  0  0  0
  -16.9360   14.9777  -31.2080 C   0  0  0  0  0  0  0  0  0  0  0  0
  -20.7044   14.4914  -29.3380 C   0  0  0  0  0  0  0  0  0  0  0  0
  1  2  1  0
  2  3  1  0
  2  4  1  0
  4  5  1  0
  5  6  2  0
  5  7  1  0
  7  8  1  0
  8  9  1  0
  9 10  1  0
 10 11  1  1
 11 12  1  0
 12 13  2  0
 13 14  1  0
 14 15  2  0
 15 16  1  0
 16 17  1  0
 16 18  2  0
 18 19  1  0
 19 20  2  0
 20 21  1  0
 21 22  1  0
 22 23  1  0
 23 24  1  0
 23 25  1  0
 21 26  1  0
 26 27  2  0
 27 28  1  0
 28 29  2  0
 29 30  1  0
 29 31  1  0
 31 32  2  0
 10 33  1  0
 33  7  1  0
 32 12  1  0
 20 14  1  0
 32 26  1  0
M  END
$$$$
