
     RDKit          3D

 28 31  0  0  0  0  0  0  0  0999 V2000
  -20.9602   46.1234  -21.8175 C   0  0  0  0  0  0  0  0  0  0  0  0
  -21.1052   44.8417  -22.4364 O   0  0  0  0  0  0  0  0  0  0  0  0
  -20.3364   43.7603  -21.9998 C   0  0  0  0  0  0  0  0  0  0  0  0
  -19.0266   43.8770  -21.6448 C   0  0  0  0  0  0  0  0  0  0  0  0
  -18.2277   42.8102  -21.2024 C   0  0  0  0  0  0  0  0  0  0  0  0
  -16.8100   42.9962  -20.8331 C   0  0  0  0  0  0  0  0  0  0  0  0
  -18.8837   41.5956  -21.1503 C   0  0  0  0  0  0  0  0  0  0  0  0
  -20.2259   41.4347  -21.5059 C   0  0  0  0  0  0  0  0  0  0  0  0
  -20.9417   42.5277  -21.9297 C   0  0  0  0  0  0  0  0  0  0  0  0
  -22.3574   42.3542  -22.3039 C   0  0  0  0  0  0  0  0  0  0  0  0
  -22.7376   41.4949  -23.1386 O   0  0  0  0  0  0  0  0  0  0  0  0
  -21.0029   40.2574  -21.4966 O   0  0  0  0  0  0  0  0  0  0  0  0
  -20.5178   38.9712  -21.5636 C   0  0  0  0  0  0  0  0  0  0  0  0
  -19.2499   38.5009  -21.3091 C   0  0  0  0  0  0  0  0  0  0  0  0
  -18.9776   37.1645  -21.4381 C   0  0  0  0  0  0  0  0  0  0  0  0
  -17.6207   36.5993  -21.1750 C   0  0  0  0  0  0  0  0  0  0  0  0
  -19.9550   36.2590  -21.8227 C   0  0  0  0  0  0  0  0  0  0  0  0
  -19.7240   34.9170  -21.9631 O   0  0  0  0  0  0  0  0  0  0  0  0
  -21.2396   36.7600  -22.0769 C   0  0  0  0  0  0  0  0  0  0  0  0
  -21.5389   38.0952  -21.9551 C   0  0  0  0  0  0  0  0  0  0  0  0
  -22.9545   38.2708  -22.2911 C   0  0  0  0  0  0  0  0  0  0  0  0
  -23.1127   39.1629  -23.3644 O   0  0  0  0  0  0  0  0  0  0  0  0
  -23.4295   36.9900  -22.6030 O   0  0  0  0  0  0  0  0  0  0  0  0
  -22.4331   36.0470  -22.4882 C   0  0  0  0  0  0  0  0  0  0  0  0
  -22.5706   34.8150  -22.7065 O   0  0  0  0  0  0  0  0  0  0  0  0
  -18.0908   39.1872  -20.9106 O   0  0  0  0  0  0  0  0  0  0  0  0
  -17.9879   40.5521  -20.6809 C   0  0  0  0  0  0  0  0  0  0  0  0
  -17.0338   40.9786  -19.9986 O   0  0  0  0  0  0  0  0  0  0  0  0
  1  2  1  0
  2  3  1  0
  3  4  2  0
  4  5  1  0
  5  6  1  0
  5  7  2  0
  7  8  1  0
  8  9  2  0
  9 10  1  0
 10 11  2  0
  8 12  1  0
 12 13  1  0
 13 14  2  0
 14 15  1  0
 15 16  1  0
 15 17  2  0
 17 18  1  0
 17 19  1  0
 19 20  2  0
 20 21  1  0
 21 22  1  0
 21 23  1  0
 23 24  1  0
 24 25  2  0
 14 26  1  0
 26 27  1  0
 27 28  2  0
  9  3  1  0
 20 13  1  0
 27  7  1  0
 24 19  1  0
M  END
$$$$
