
     RDKit          3D

 30 34  0  0  0  0  0  0  0  0999 V2000
  -22.1544   -0.7143  -34.7932 C   0  0  0  0  0  0  0  0  0  0  0  0
  -22.7302    0.0833  -33.6863 C   0  0  0  0  0  0  0  0  0  0  0  0
  -24.0119    0.6004  -33.7770 C   0  0  0  0  0  0  0  0  0  0  0  0
  -24.5445    1.3432  -32.7429 C   0  0  0  0  0  0  0  0  0  0  0  0
  -23.7521    1.5434  -31.6316 C   0  0  0  0  0  0  0  0  0  0  0  0
  -22.4709    1.0270  -31.5400 C   0  0  0  0  0  0  0  0  0  0  0  0
  -21.9375    0.2833  -32.5752 C   0  0  0  0  0  0  0  0  0  0  0  0
  -20.6247   -0.2509  -32.4916 N   0  0  0  0  0  0  0  0  0  0  0  0
  -19.7695   -0.4825  -33.6370 C   0  0  0  0  0  0  0  0  0  0  0  0
  -18.3571   -0.0639  -33.2339 C   0  0  0  0  0  0  0  0  0  0  0  0
  -17.9122   -0.9951  -32.2097 N   0  0  0  0  0  0  0  0  0  0  0  0
  -16.5857   -1.4453  -32.1580 C   0  0  0  0  0  0  0  0  0  0  0  0
  -16.1783   -2.1535  -31.0780 N   0  0  0  0  0  0  0  0  0  0  0  0
  -14.9191   -2.6121  -30.9706 C   0  0  0  0  0  0  0  0  0  0  0  0
  -14.0163   -2.3816  -31.9379 N   0  0  0  0  0  0  0  0  0  0  0  0
  -14.3446   -1.6870  -33.0397 C   0  0  0  0  0  0  0  0  0  0  0  0
  -15.6498   -1.2193  -33.1367 C   0  0  0  0  0  0  0  0  0  0  0  0
  -15.7218   -0.5567  -34.3310 C   0  0  0  0  0  0  0  0  0  0  0  0
  -14.5089   -0.6311  -34.9135 N   0  0  0  0  0  0  0  0  0  0  0  0
  -13.6898   -1.3114  -34.1304 N   0  0  0  0  0  0  0  0  0  0  0  0
  -12.3128   -1.5839  -34.4406 C   0  0  0  0  0  0  0  0  0  0  0  0
  -11.4517   -0.3660  -34.3193 C   0  0  0  0  0  0  0  0  0  0  0  0
  -11.5157    0.6467  -35.2550 C   0  0  0  0  0  0  0  0  0  0  0  0
  -10.7332    1.7797  -35.1669 C   0  0  0  0  0  0  0  0  0  0  0  0
   -9.8453    1.9419  -34.1233 C   0  0  0  0  0  0  0  0  0  0  0  0
   -8.8380    3.3766  -33.9900 Cl  0  0  0  0  0  0  0  0  0  0  0  0
   -9.7831    0.9278  -33.1890 C   0  0  0  0  0  0  0  0  0  0  0  0
  -10.5646   -0.2059  -33.2752 C   0  0  0  0  0  0  0  0  0  0  0  0
  -18.8814   -1.4457  -31.2415 C   0  0  0  0  0  0  0  0  0  0  0  0
  -20.1021   -0.5871  -31.1844 C   0  0  0  0  0  0  0  0  0  0  0  0
  1  2  1  0
  2  3  2  0
  3  4  1  0
  4  5  2  0
  5  6  1  0
  6  7  2  0
  7  8  1  0
  8  9  1  0
  9 10  1  0
 10 11  1  0
 11 12  1  0
 12 13  2  0
 13 14  1  0
 14 15  2  0
 15 16  1  0
 16 17  2  0
 17 18  1  0
 18 19  2  0
 19 20  1  0
 20 21  1  0
 21 22  1  0
 22 23  2  0
 23 24  1  0
 24 25  2  0
 25 26  1  0
 25 27  1  0
 27 28  2  0
 11 29  1  0
 29 30  1  0
  7  2  1  0
 30  8  1  0
 17 12  1  0
 28 22  1  0
 20 16  1  0
M  END
$$$$
