
     RDKit          3D

 28 32  0  0  0  0  0  0  0  0999 V2000
   -9.6597    1.7618  -34.5253 C   0  0  0  0  0  0  0  0  0  0  0  0
  -10.9736    1.4550  -33.9512 C   0  0  0  0  0  0  0  0  0  0  0  0
  -11.6236    2.3010  -33.0619 C   0  0  0  0  0  0  0  0  0  0  0  0
  -12.8478    1.9620  -32.5598 C   0  0  0  0  0  0  0  0  0  0  0  0
  -13.4308    0.7781  -32.9413 C   0  0  0  0  0  0  0  0  0  0  0  0
  -12.7881   -0.0792  -33.8332 C   0  0  0  0  0  0  0  0  0  0  0  0
  -13.3806   -1.3424  -34.2581 C   0  0  0  0  0  0  0  0  0  0  0  0
  -12.8793   -2.1971  -35.1912 N   0  0  0  0  0  0  0  0  0  0  0  0
  -13.6739   -3.2414  -35.3243 N   0  0  0  0  0  0  0  0  0  0  0  0
  -14.7119   -3.1271  -34.5047 C   0  0  0  0  0  0  0  0  0  0  0  0
  -14.5500   -1.9371  -33.8209 C   0  0  0  0  0  0  0  0  0  0  0  0
  -15.4011   -1.3320  -32.8089 C   0  0  0  0  0  0  0  0  0  0  0  0
  -15.1065   -1.3713  -31.4642 C   0  0  0  0  0  0  0  0  0  0  0  0
  -15.9804   -0.7667  -30.5921 C   0  0  0  0  0  0  0  0  0  0  0  0
  -17.1024   -0.1418  -30.9799 N   0  0  0  0  0  0  0  0  0  0  0  0
  -17.4111   -0.0915  -32.2988 C   0  0  0  0  0  0  0  0  0  0  0  0
  -18.5561    0.5415  -32.7343 C   0  0  0  0  0  0  0  0  0  0  0  0
  -18.8882    0.6028  -34.0723 C   0  0  0  0  0  0  0  0  0  0  0  0
  -18.0573    0.0176  -35.0028 C   0  0  0  0  0  0  0  0  0  0  0  0
  -18.3532    0.0481  -36.4305 C   0  0  0  0  0  0  0  0  0  0  0  0
  -17.2549   -0.0641  -37.3266 N   0  0  0  0  0  0  0  0  0  0  0  0
  -19.4942    0.1650  -36.8944 O   0  0  0  0  0  0  0  0  0  0  0  0
  -16.9083   -0.6152  -34.5424 C   0  0  0  0  0  0  0  0  0  0  0  0
  -16.5561   -0.6891  -33.2118 C   0  0  0  0  0  0  0  0  0  0  0  0
  -15.6190   -4.3191  -34.6564 C   0  0  0  0  0  0  0  0  0  0  0  0
  -14.7137   -5.3350  -35.3124 C   0  0  0  0  0  0  0  0  0  0  0  0
  -13.7516   -4.4706  -36.0946 C   0  0  0  0  0  0  0  0  0  0  0  0
  -11.5909    0.3234  -34.2811 N   0  0  0  0  0  0  0  0  0  0  0  0
  1  2  1  0
  2  3  2  0
  3  4  1  0
  4  5  2  0
  5  6  1  0
  6  7  1  0
  7  8  2  0
  8  9  1  0
  9 10  1  0
 10 11  2  0
 11 12  1  0
 12 13  2  0
 13 14  1  0
 14 15  2  0
 15 16  1  0
 16 17  2  0
 17 18  1  0
 18 19  2  0
 19 20  1  0
 20 21  1  0
 20 22  2  0
 19 23  1  0
 23 24  2  0
 10 25  1  0
 25 26  1  0
 26 27  1  0
  6 28  2  0
 28  2  1  0
 11  7  1  0
 24 12  1  0
 27  9  1  0
 24 16  1  0
M  END
$$$$
