
     RDKit          3D

 20 22  0  0  0  0  0  0  0  0999 V2000
  -12.6196   46.0680  -19.7477 C   0  0  0  0  0  0  0  0  0  0  0  0
  -13.7797   45.3664  -20.9433 S   0  0  0  0  0  0  0  0  0  0  0  0
  -15.4276   46.1315  -20.7901 C   0  0  0  0  0  0  0  0  0  0  0  0
  -16.4271   45.0824  -21.1149 C   0  0  1  0  0  0  0  0  0  0  0  0
  -15.7818   43.6978  -20.8428 C   0  0  0  0  0  0  0  0  0  0  0  0
  -16.8945   42.8297  -20.6619 N   0  0  0  0  0  0  0  0  0  0  0  0
  -16.7510   41.7947  -19.6872 C   0  0  0  0  0  0  0  0  0  0  0  0
  -17.9898   41.0689  -19.3554 C   0  0  0  0  0  0  0  0  0  0  0  0
  -18.5850   41.1064  -18.0932 C   0  0  0  0  0  0  0  0  0  0  0  0
  -19.6854   40.3443  -18.1582 N   0  0  0  0  0  0  0  0  0  0  0  0
  -19.8258   39.8269  -19.3791 C   0  0  0  0  0  0  0  0  0  0  0  0
  -20.7681   38.9889  -19.9622 C   0  0  0  0  0  0  0  0  0  0  0  0
  -21.8715   38.5182  -19.1828 N   0  0  0  0  0  0  0  0  0  0  0  0
  -20.6459   38.6244  -21.2423 N   0  0  0  0  0  0  0  0  0  0  0  0
  -19.6219   39.0606  -21.9684 C   0  0  0  0  0  0  0  0  0  0  0  0
  -18.7012   39.8691  -21.4284 N   0  0  0  0  0  0  0  0  0  0  0  0
  -18.7628   40.2726  -20.1540 C   0  0  0  0  0  0  0  0  0  0  0  0
  -18.0767   43.5979  -20.3966 C   0  0  0  0  0  0  0  0  0  0  0  0
  -17.5599   44.9861  -20.1201 C   0  0  2  0  0  0  0  0  0  0  0  0
  -18.5949   45.8729  -20.4332 O   0  0  0  0  0  0  0  0  0  0  0  0
  1  2  1  0
  2  3  1  0
  4  3  1  1
  4  5  1  0
  5  6  1  0
  6  7  1  0
  7  8  1  0
  8  9  2  0
  9 10  1  0
 10 11  1  0
 11 12  2  0
 12 13  1  0
 12 14  1  0
 14 15  2  0
 15 16  1  0
 16 17  2  0
  6 18  1  0
 18 19  1  0
 19 20  1  6
 19  4  1  0
 17  8  1  0
 17 11  1  0
M  END
$$$$
