
     RDKit          3D

 30 33  0  0  0  0  0  0  0  0999 V2000
  -20.1863   14.6679  -29.9878 N   0  0  0  0  0  0  0  0  0  0  0  0
  -19.8265   15.5763  -31.0567 C   0  0  0  0  0  0  0  0  0  0  0  0
  -18.4905   15.1873  -31.6442 C   0  0  0  0  0  0  0  0  0  0  0  0
  -18.4002   14.2103  -32.4315 O   0  0  0  0  0  0  0  0  0  0  0  0
  -17.3279   15.9332  -31.3028 N   0  0  0  0  0  0  0  0  0  0  0  0
  -16.0595   15.5275  -31.8237 C   0  0  1  0  0  0  0  0  0  0  0  0
  -15.2163   16.7685  -32.0811 C   0  0  0  0  0  0  0  0  0  0  0  0
  -15.5485   17.4627  -33.3613 C   0  0  0  0  0  0  0  0  0  0  0  0
  -15.2742   16.7365  -34.5058 O   0  0  0  0  0  0  0  0  0  0  0  0
  -15.3831   14.5050  -31.0340 C   0  0  0  0  0  0  0  0  0  0  0  0
  -14.8494   13.3819  -31.6258 C   0  0  0  0  0  0  0  0  0  0  0  0
  -14.1924   12.4070  -30.8774 C   0  0  0  0  0  0  0  0  0  0  0  0
  -14.0583   12.5422  -29.5142 C   0  0  0  0  0  0  0  0  0  0  0  0
  -13.2303   11.3196  -28.5472 Cl  0  0  0  0  0  0  0  0  0  0  0  0
  -14.5874   13.6597  -28.9132 C   0  0  0  0  0  0  0  0  0  0  0  0
  -15.2381   14.6183  -29.6805 C   0  0  0  0  0  0  0  0  0  0  0  0
  -20.8681   15.4730  -32.1351 C   0  0  0  0  0  0  0  0  0  0  0  0
  -22.1227   16.2370  -31.8304 C   0  0  0  0  0  0  0  0  0  0  0  0
  -21.9164   17.4394  -31.0991 N   0  0  0  0  0  0  0  0  0  0  0  0
  -22.7095   18.5885  -31.4159 C   0  0  0  0  0  0  0  0  0  0  0  0
  -22.8903   19.5347  -30.4794 N   0  0  0  0  0  0  0  0  0  0  0  0
  -23.6219   20.6173  -30.7310 C   0  0  0  0  0  0  0  0  0  0  0  0
  -24.2131   20.8211  -31.9219 N   0  0  0  0  0  0  0  0  0  0  0  0
  -24.0466   19.8863  -32.8779 C   0  0  0  0  0  0  0  0  0  0  0  0
  -24.4886   19.7877  -34.1399 N   0  0  0  0  0  0  0  0  0  0  0  0
  -24.0571   18.6576  -34.7167 C   0  0  0  0  0  0  0  0  0  0  0  0
  -23.2977   17.9854  -33.7897 C   0  0  0  0  0  0  0  0  0  0  0  0
  -23.2832   18.7385  -32.6422 C   0  0  0  0  0  0  0  0  0  0  0  0
  -20.9402   17.5865  -30.0345 C   0  0  0  0  0  0  0  0  0  0  0  0
  -19.6680   16.9463  -30.4953 C   0  0  0  0  0  0  0  0  0  0  0  0
  1  2  1  0
  2  3  1  0
  3  4  2  0
  3  5  1  0
  5  6  1  0
  6  7  1  1
  7  8  1  0
  8  9  1  0
  6 10  1  0
 10 11  2  0
 11 12  1  0
 12 13  2  0
 13 14  1  0
 13 15  1  0
 15 16  2  0
  2 17  1  0
 17 18  1  0
 18 19  1  0
 19 20  1  0
 20 21  2  0
 21 22  1  0
 22 23  2  0
 23 24  1  0
 24 25  1  0
 25 26  1  0
 26 27  2  0
 27 28  1  0
 19 29  1  0
 29 30  1  0
 30  2  1  0
 16 10  1  0
 28 20  1  0
 28 24  2  0
M  END
$$$$
