
     RDKit          3D

 23 26  0  0  0  0  0  0  0  0999 V2000
  -13.2473   44.4121  -15.9174 C   0  0  0  0  0  0  0  0  0  0  0  0
  -12.8226   45.1418  -17.1409 C   0  0  0  0  0  0  0  0  0  0  0  0
  -13.7673   45.5775  -17.9574 C   0  0  0  0  0  0  0  0  0  0  0  0
  -14.4288   46.8761  -18.0085 C   0  0  0  0  0  0  0  0  0  0  0  0
  -14.0136   47.9043  -17.4329 O   0  0  0  0  0  0  0  0  0  0  0  0
  -15.6568   46.7808  -18.8423 C   0  0  0  0  0  0  0  0  0  0  0  0
  -15.8462   45.3063  -18.8875 C   0  0  1  0  0  0  0  0  0  0  0  0
  -16.7148   44.7456  -19.9278 C   0  0  2  0  0  0  0  0  0  0  0  0
  -18.1081   45.3406  -19.8890 C   0  0  0  0  0  0  0  0  0  0  0  0
  -18.7942   44.8648  -21.1529 C   0  0  0  0  0  0  0  0  0  0  0  0
  -18.8589   43.3800  -21.0629 C   0  0  0  0  0  0  0  0  0  0  0  0
  -19.9516   42.8076  -21.5295 C   0  0  0  0  0  0  0  0  0  0  0  0
  -20.1151   41.3544  -21.4883 C   0  0  0  0  0  0  0  0  0  0  0  0
  -20.8684   40.7508  -22.2700 O   0  0  0  0  0  0  0  0  0  0  0  0
  -19.3560   40.5758  -20.4793 C   0  0  0  0  0  0  0  0  0  0  0  0
  -18.4371   41.4492  -19.6648 C   0  0  0  0  0  0  0  0  0  0  0  0
  -17.7995   42.5461  -20.4998 C   0  0  1  0  0  0  0  0  0  0  0  0
  -17.0628   41.8991  -21.6808 C   0  0  0  0  0  0  0  0  0  0  0  0
  -16.8370   43.2615  -19.6128 C   0  0  1  0  0  0  0  0  0  0  0  0
  -15.4662   42.6646  -19.7029 C   0  0  0  0  0  0  0  0  0  0  0  0
  -14.4387   43.3401  -18.8588 C   0  0  0  0  0  0  0  0  0  0  0  0
  -14.4181   44.8107  -19.0792 C   0  0  2  0  0  0  0  0  0  0  0  0
  -13.8026   45.2609  -20.3517 C   0  0  0  0  0  0  0  0  0  0  0  0
  1  2  1  0
  2  3  2  0
  3  4  1  0
  4  5  2  0
  4  6  1  0
  7  6  1  6
  7  8  1  0
  8  9  1  1
  9 10  1  0
 10 11  1  0
 11 12  2  0
 12 13  1  0
 13 14  2  0
 13 15  1  0
 15 16  1  0
 16 17  1  0
 17 18  1  6
 17 19  1  0
 19 20  1  6
 20 21  1  0
 21 22  1  0
 22 23  1  6
 22  3  1  0
 22  7  1  0
 19  8  1  0
 17 11  1  0
M  END
$$$$
