
     RDKit          3D

 37 39  0  0  0  0  0  0  0  0999 V2000
  -34.3071    7.6651  -12.1417 N   0  0  0  0  0  0  0  0  0  0  0  0
  -34.9949    8.2972  -13.2211 C   0  0  0  0  0  0  0  0  0  0  0  0
  -36.0685    8.8689  -12.9852 O   0  0  0  0  0  0  0  0  0  0  0  0
  -34.4759    8.2898  -14.5799 C   0  0  0  0  0  0  0  0  0  0  0  0
  -35.1588    8.9035  -15.5892 C   0  0  0  0  0  0  0  0  0  0  0  0
  -34.6288    8.8755  -16.8810 C   0  0  0  0  0  0  0  0  0  0  0  0
  -33.4713    8.2629  -17.1494 N   0  0  0  0  0  4  0  0  0  0  0  0
  -32.9661    8.2651  -18.5117 C   0  0  0  0  0  0  0  0  0  0  0  0
  -32.1012    9.4217  -18.7812 C   0  0  0  0  0  0  0  0  0  0  0  0
  -30.8597    9.3220  -19.1019 C   0  0  0  0  0  0  0  0  0  0  0  0
  -30.1351    8.0805  -19.2418 C   0  0  0  0  0  0  0  0  0  0  0  0
  -28.8970    8.0472  -19.5812 O   0  0  0  0  0  0  0  0  0  0  0  0
  -30.7045    6.8543  -19.0236 O   0  0  0  0  0  1  0  0  0  0  0  0
  -30.0408   10.4928  -19.3639 N   0  0  0  0  0  0  0  0  0  0  0  0
  -29.0087   11.1160  -20.0597 C   0  0  0  0  0  0  0  0  0  0  0  0
  -28.0836   10.7493  -20.8315 O   0  0  0  0  0  0  0  0  0  0  0  0
  -29.3581   12.4942  -19.5696 C   0  0  1  0  0  0  0  0  0  0  0  0
  -30.0409   13.1886  -20.6595 N   0  0  0  0  0  0  0  0  0  0  0  0
  -29.6651   14.4621  -21.1112 C   0  0  0  0  0  0  0  0  0  0  0  0
  -28.6812   15.0192  -20.5271 O   0  0  0  0  0  0  0  0  0  0  0  0
  -30.3312   15.2103  -22.2215 C   0  0  1  0  0  0  0  0  0  0  0  0
  -29.7374   16.5399  -22.4103 C   0  0  0  0  0  0  0  0  0  0  0  0
  -28.3892   16.6971  -22.6135 C   0  0  0  0  0  0  0  0  0  0  0  0
  -27.8828   17.9714  -22.7857 C   0  0  0  0  0  0  0  0  0  0  0  0
  -28.6964   19.0787  -22.7580 C   0  0  0  0  0  0  0  0  0  0  0  0
  -30.0478   18.9419  -22.5560 C   0  0  0  0  0  0  0  0  0  0  0  0
  -30.5358   17.6539  -22.3852 C   0  0  0  0  0  0  0  0  0  0  0  0
  -30.0916   14.2062  -23.6971 S   0  0  0  0  0  6  0  0  0  0  0  0
  -30.6864   12.8635  -23.4027 O   0  0  0  0  0  0  0  0  0  0  0  0
  -30.7958   14.8293  -24.8671 O   0  0  0  0  0  0  0  0  0  0  0  0
  -28.4579   14.0087  -23.9872 O   0  0  0  0  0  1  0  0  0  0  0  0
  -30.2504   11.7310  -18.6471 C   0  0  1  0  0  0  0  0  0  0  0  0
  -31.9957   12.1921  -18.9847 S   0  0  0  0  0  0  0  0  0  0  0  0
  -32.8851   10.7066  -18.6353 C   0  0  0  0  0  0  0  0  0  0  0  0
  -32.8100    7.6634  -16.1483 C   0  0  0  0  0  0  0  0  0  0  0  0
  -33.2773    7.6535  -14.8494 C   0  0  0  0  0  0  0  0  0  0  0  0
  -31.3833   11.8807  -19.2013 Na  0  0  0  0  0 15  0  0  0  0  0  0
  1  2  1  0
  2  3  2  0
  2  4  1  0
  4  5  2  0
  5  6  1  0
  6  7  2  0
  7  8  1  0
  8  9  1  0
  9 10  2  0
 10 11  1  0
 11 12  2  0
 11 13  1  0
 10 14  1  0
 14 15  1  0
 15 16  2  0
 15 17  1  0
 17 18  1  6
 18 19  1  0
 19 20  2  0
 21 19  1  1
 21 22  1  0
 22 23  2  0
 23 24  1  0
 24 25  2  0
 25 26  1  0
 26 27  2  0
 21 28  1  0
 28 29  2  0
 28 30  2  0
 28 31  1  0
 17 32  1  0
 32 33  1  6
 33 34  1  0
  7 35  1  0
 35 36  2  0
 36  4  1  0
 34  9  1  0
 32 14  1  0
 27 22  1  0
M  CHG  4   7   1  13  -1  31  -1  37   1
M  END
$$$$
