
     RDKit          3D

 18 19  0  0  0  0  0  0  0  0999 V2000
  -16.6283   -3.8934  -27.1637 O   0  0  0  0  0  0  0  0  0  0  0  0
  -16.2551   -3.7384  -25.9534 C   0  0  0  0  0  0  0  0  0  0  0  0
  -17.1557   -3.3299  -24.9915 C   0  0  0  0  0  0  0  0  0  0  0  0
  -16.6762   -3.1815  -23.6884 C   0  0  0  0  0  0  0  0  0  0  0  0
  -15.3790   -3.4199  -23.3375 C   0  0  0  0  0  0  0  0  0  0  0  0
  -14.8891   -3.2869  -22.0981 N   0  0  0  0  0  4  0  0  0  0  0  0
  -15.7605   -2.8773  -21.0963 O   0  0  0  0  0  1  0  0  0  0  0  0
  -13.5918   -3.5474  -21.8565 C   0  0  0  0  0  0  0  0  0  0  0  0
  -13.1047   -3.4052  -20.5751 C   0  0  0  0  0  0  0  0  0  0  0  0
  -11.7724   -3.6598  -20.2631 C   0  0  0  0  0  0  0  0  0  0  0  0
  -10.9150   -4.0635  -21.2521 C   0  0  0  0  0  0  0  0  0  0  0  0
   -9.5819   -4.3247  -20.9717 O   0  0  0  0  0  1  0  0  0  0  0  0
  -11.3736   -4.2145  -22.5436 C   0  0  0  0  0  0  0  0  0  0  0  0
  -12.7161   -3.9549  -22.8430 C   0  0  0  0  0  0  0  0  0  0  0  0
  -13.1732   -4.0926  -24.0662 O   0  0  0  0  0  0  0  0  0  0  0  0
  -14.4288   -3.8553  -24.3737 C   0  0  0  0  0  0  0  0  0  0  0  0
  -14.9345   -3.9921  -25.6504 C   0  0  0  0  0  0  0  0  0  0  0  0
  -14.0893   -3.6656  -23.0314 Na  0  0  0  0  0 15  0  0  0  0  0  0
  1  2  2  0
  2  3  1  0
  3  4  2  0
  4  5  1  0
  5  6  2  0
  6  7  1  0
  6  8  1  0
  8  9  2  0
  9 10  1  0
 10 11  2  0
 11 12  1  0
 11 13  1  0
 13 14  2  0
 14 15  1  0
 15 16  1  0
 16 17  2  0
 17  2  1  0
 16  5  1  0
 14  8  1  0
M  CHG  4   6   1   7  -1  12  -1  18   1
M  END
$$$$
