
     RDKit          3D

 34 36  0  0  0  0  0  0  0  0999 V2000
  -23.4529   41.0559  -21.4902 C   0  0  0  0  0  0  0  0  0  0  0  0
  -22.7004   40.4720  -22.5585 N   0  0  0  0  0  0  0  0  0  0  0  0
  -23.0563   41.1020  -23.8155 C   0  0  0  0  0  0  0  0  0  0  0  0
  -21.2815   40.6005  -22.2961 C   0  0  2  0  0  0  0  0  0  0  0  0
  -20.9176   42.0314  -22.1781 C   0  0  0  0  0  0  0  0  0  0  0  0
  -21.8514   43.0541  -22.0903 O   0  0  0  0  0  0  0  0  0  0  0  0
  -19.6210   42.3253  -22.1575 C   0  0  0  0  0  0  0  0  0  0  0  0
  -19.1455   43.6933  -22.0449 C   0  0  0  0  0  0  0  0  0  0  0  0
  -17.7619   43.9475  -22.0279 N   0  0  0  0  0  0  0  0  0  0  0  0
  -19.9700   44.6218  -21.9651 O   0  0  0  0  0  0  0  0  0  0  0  0
  -18.6943   41.1983  -22.2553 C   0  0  0  0  0  0  0  0  0  0  0  0
  -17.5922   41.2835  -21.6478 O   0  0  0  0  0  0  0  0  0  0  0  0
  -19.0235   39.9628  -23.0515 C   0  0  1  0  0  0  0  0  0  0  0  0
  -18.2344   40.0391  -24.2121 O   0  0  0  0  0  0  0  0  0  0  0  0
  -18.5969   38.8077  -22.2288 C   0  0  0  0  0  0  0  0  0  0  0  0
  -17.7661   38.9245  -21.1317 O   0  0  0  0  0  0  0  0  0  0  0  0
  -19.0394   37.5914  -22.5670 C   0  0  0  0  0  0  0  0  0  0  0  0
  -18.6133   36.4637  -21.7520 C   0  0  0  0  0  0  0  0  0  0  0  0
  -17.7683   36.5864  -20.8125 O   0  0  0  0  0  0  0  0  0  0  0  0
  -19.2057   35.1687  -22.0638 C   0  0  0  0  0  0  0  0  0  0  0  0
  -18.8387   34.0525  -21.3148 C   0  0  0  0  0  0  0  0  0  0  0  0
  -17.9069   34.2657  -20.3019 O   0  0  0  0  0  0  0  0  0  0  0  0
  -19.3754   32.8119  -21.5722 C   0  0  0  0  0  0  0  0  0  0  0  0
  -20.2888   32.7148  -22.5976 C   0  0  0  0  0  0  0  0  0  0  0  0
  -20.6670   33.8126  -23.3541 C   0  0  0  0  0  0  0  0  0  0  0  0
  -21.8410   33.5464  -24.6227 Cl  0  0  0  0  0  0  0  0  0  0  0  0
  -20.1170   35.0639  -23.0848 C   0  0  0  0  0  0  0  0  0  0  0  0
  -20.5768   36.1735  -23.9401 C   0  0  1  0  0  0  0  0  0  0  0  0
  -20.3602   35.7095  -25.3820 C   0  0  0  0  0  0  0  0  0  0  0  0
  -21.9596   36.3015  -23.7166 O   0  0  0  0  0  0  0  0  0  0  0  0
  -19.9166   37.4895  -23.7331 C   0  0  1  0  0  0  0  0  0  0  0  0
  -21.0096   38.5428  -23.6199 C   0  0  0  0  0  0  0  0  0  0  0  0
  -20.4791   39.9109  -23.3919 C   0  0  1  0  0  0  0  0  0  0  0  0
  -20.0694   37.9791  -22.8069 Cl  0  0  0  0  0  0  0  0  0  0  0  0
  1  2  1  0
  2  3  1  0
  4  2  1  6
  4  5  1  0
  5  6  1  0
  5  7  2  0
  7  8  1  0
  8  9  1  0
  8 10  2  0
  7 11  1  0
 11 12  2  0
 11 13  1  0
 13 14  1  6
 13 15  1  0
 15 16  1  0
 15 17  2  0
 17 18  1  0
 18 19  2  0
 18 20  1  0
 20 21  2  0
 21 22  1  0
 21 23  1  0
 23 24  2  0
 24 25  1  0
 25 26  1  0
 25 27  2  0
 27 28  1  0
 28 29  1  6
 28 30  1  0
 28 31  1  0
 31 32  1  1
 33 32  1  1
 33  4  1  0
 33 13  1  0
 31 17  1  0
 27 20  1  0
M  END
$$$$
