
     RDKit          3D

 28 30  0  0  0  0  0  0  0  0999 V2000
  -14.9349   20.7237  -35.6733 C   0  0  0  0  0  0  0  0  0  0  0  0
  -15.2398   19.6939  -36.5765 O   0  0  0  0  0  0  0  0  0  0  0  0
  -15.9101   18.5392  -36.2317 C   0  0  0  0  0  0  0  0  0  0  0  0
  -16.4209   18.4388  -35.1076 O   0  0  0  0  0  0  0  0  0  0  0  0
  -16.0173   17.4476  -37.1787 C   0  0  0  0  0  0  0  0  0  0  0  0
  -15.1090   15.9256  -37.1136 S   0  0  0  0  0  0  0  0  0  0  0  0
  -15.8591   15.2203  -38.6216 C   0  0  0  0  0  0  0  0  0  0  0  0
  -16.7092   16.1960  -39.0154 C   0  0  0  0  0  0  0  0  0  0  0  0
  -16.7999   17.3163  -38.3038 C   0  0  0  0  0  0  0  0  0  0  0  0
  -17.8903   18.6740  -38.7360 S   0  0  0  0  0  6  0  0  0  0  0  0
  -19.3151   18.1813  -38.5924 O   0  0  0  0  0  0  0  0  0  0  0  0
  -17.7243   19.8043  -37.7638 O   0  0  0  0  0  0  0  0  0  0  0  0
  -17.6008   19.2017  -40.3479 N   0  0  0  0  0  0  0  0  0  0  0  0
  -16.3429   19.0793  -40.9593 C   0  0  0  0  0  0  0  0  0  0  0  0
  -15.1935   19.2174  -40.2403 C   0  0  0  0  0  0  0  0  0  0  0  0
  -13.9391   19.0878  -40.8543 C   0  0  0  0  0  0  0  0  0  0  0  0
  -13.8733   18.8168  -42.2049 C   0  0  0  0  0  0  0  0  0  0  0  0
  -12.6202   18.6628  -42.8304 N   0  0  0  0  0  0  0  0  0  0  0  0
  -11.9344   19.7335  -43.4645 C   0  0  0  0  0  0  0  0  0  0  0  0
  -11.3532   19.5116  -44.7189 C   0  0  0  0  0  0  0  0  0  0  0  0
  -10.6523   20.4801  -45.4026 C   0  0  0  0  0  0  0  0  0  0  0  0
  -10.5187   21.7211  -44.8246 C   0  0  0  0  0  0  0  0  0  0  0  0
  -11.0780   21.9791  -43.5869 C   0  0  0  0  0  0  0  0  0  0  0  0
  -11.7798   20.9869  -42.9165 C   0  0  0  0  0  0  0  0  0  0  0  0
  -15.0281   18.6781  -42.9243 C   0  0  0  0  0  0  0  0  0  0  0  0
  -16.2670   18.8097  -42.3012 C   0  0  0  0  0  0  0  0  0  0  0  0
  -17.4085   18.6584  -43.0861 O   0  0  0  0  0  0  0  0  0  0  0  0
  -17.3113   18.4916  -44.4751 C   0  0  0  0  0  0  0  0  0  0  0  0
  1  2  1  0
  2  3  1  0
  3  4  2  0
  3  5  1  0
  5  6  1  0
  6  7  1  0
  7  8  2  0
  8  9  1  0
  9 10  1  0
 10 11  2  0
 10 12  2  0
 10 13  1  0
 13 14  1  0
 14 15  2  0
 15 16  1  0
 16 17  2  0
 17 18  1  0
 18 19  1  0
 19 20  2  0
 20 21  1  0
 21 22  2  0
 22 23  1  0
 23 24  2  0
 17 25  1  0
 25 26  2  0
 26 27  1  0
 27 28  1  0
  9  5  2  0
 26 14  1  0
 24 19  1  0
M  END
$$$$
