
     RDKit          3D

 30 33  0  0  0  0  0  0  0  0999 V2000
  -23.9790   18.8570  -39.1727 C   0  0  0  0  0  0  0  0  0  0  0  0
  -23.0956   19.8098  -38.3705 C   0  0  0  0  0  0  0  0  0  0  0  0
  -23.1878   21.2048  -38.8954 C   0  0  0  0  0  0  0  0  0  0  0  0
  -23.6640   19.8279  -37.0742 O   0  0  0  0  0  0  0  0  0  0  0  0
  -21.7191   19.2711  -38.2204 C   0  0  1  0  0  0  0  0  0  0  0  0
  -20.7779   20.1488  -37.4341 C   0  0  0  0  0  0  0  0  0  0  0  0
  -20.5808   19.6308  -36.0251 C   0  0  0  0  0  0  0  0  0  0  0  0
  -19.7982   18.3027  -36.0296 C   0  0  2  0  0  0  0  0  0  0  0  0
  -18.4117   18.6110  -36.0603 N   0  0  0  0  0  0  0  0  0  0  0  0
  -17.4585   18.1871  -35.0963 C   0  0  0  0  0  0  0  0  0  0  0  0
  -16.1171   18.3685  -35.3474 C   0  0  0  0  0  0  0  0  0  0  0  0
  -15.1743   17.9756  -34.4138 C   0  0  0  0  0  0  0  0  0  0  0  0
  -15.6681   17.4043  -33.2461 C   0  0  0  0  0  0  0  0  0  0  0  0
  -15.0537   16.9249  -32.1619 N   0  0  0  0  0  0  0  0  0  0  0  0
  -15.9642   16.4706  -31.2865 C   0  0  0  0  0  0  0  0  0  0  0  0
  -17.2135   16.6643  -31.8266 C   0  0  0  0  0  0  0  0  0  0  0  0
  -18.5011   16.3267  -31.2384 C   0  0  0  0  0  0  0  0  0  0  0  0
  -18.5853   15.1741  -30.4897 C   0  0  0  0  0  0  0  0  0  0  0  0
  -19.7936   14.7898  -29.8953 C   0  0  0  0  0  0  0  0  0  0  0  0
  -20.9189   15.5791  -30.0623 C   0  0  0  0  0  0  0  0  0  0  0  0
  -20.8490   16.7194  -30.7991 C   0  0  0  0  0  0  0  0  0  0  0  0
  -22.0827   17.5426  -30.9557 C   0  0  0  0  0  0  0  0  0  0  0  0
  -21.7482   18.8713  -31.2407 F   0  0  0  0  0  0  0  0  0  0  0  0
  -22.8892   17.4626  -29.8605 F   0  0  0  0  0  0  0  0  0  0  0  0
  -22.7408   17.0734  -32.0954 F   0  0  0  0  0  0  0  0  0  0  0  0
  -19.6479   17.0763  -31.3742 C   0  0  0  0  0  0  0  0  0  0  0  0
  -16.9862   17.2452  -33.0414 N   0  0  0  0  0  0  0  0  0  0  0  0
  -17.8806   17.6230  -33.9376 N   0  0  0  0  0  0  0  0  0  0  0  0
  -20.2842   17.5799  -37.2643 C   0  0  0  0  0  0  0  0  0  0  0  0
  -21.7480   17.9504  -37.4703 C   0  0  0  0  0  0  0  0  0  0  0  0
  1  2  1  0
  2  3  1  0
  2  4  1  0
  5  2  1  1
  5  6  1  0
  6  7  1  0
  7  8  1  0
  8  9  1  6
  9 10  1  0
 10 11  1  0
 11 12  2  0
 12 13  1  0
 13 14  2  0
 14 15  1  0
 15 16  2  0
 16 17  1  0
 17 18  2  0
 18 19  1  0
 19 20  2  0
 20 21  1  0
 21 22  1  0
 22 23  1  0
 22 24  1  0
 22 25  1  0
 21 26  2  0
 16 27  1  0
 27 28  1  0
  8 29  1  0
 29 30  1  0
 30  5  1  0
 28 10  2  0
 27 13  1  0
 26 17  1  0
M  END
$$$$
