
     RDKit          3D

 31 35  0  0  0  0  0  0  0  0999 V2000
  -21.3823   36.6504  -20.7954 O   0  0  0  0  0  0  0  0  0  0  0  0
  -20.1527   36.8871  -20.8146 C   0  0  0  0  0  0  0  0  0  0  0  0
  -19.2838   36.6803  -19.6961 N   0  0  0  0  0  0  0  0  0  0  0  0
  -17.9940   37.2094  -20.0808 C   0  0  0  0  0  0  0  0  0  0  0  0
  -18.0118   37.0198  -21.5815 C   0  0  0  0  0  0  0  0  0  0  0  0
  -19.3623   37.3964  -21.9087 N   0  0  0  0  0  0  0  0  0  0  0  0
  -19.9095   38.1006  -23.0229 C   0  0  0  0  0  0  0  0  0  0  0  0
  -19.3234   39.4460  -23.2928 C   0  0  0  0  0  0  0  0  0  0  0  0
  -18.8419   40.1388  -22.1140 N   0  0  0  0  0  0  0  0  0  0  0  0
  -17.5722   40.7400  -22.4513 C   0  0  0  0  0  0  0  0  0  0  0  0
  -17.0772   41.7076  -21.4048 C   0  0  0  0  0  0  0  0  0  0  0  0
  -18.1685   42.6037  -20.9017 C   0  0  0  0  0  0  0  0  0  0  0  0
  -17.7572   43.9601  -20.5572 C   0  0  0  0  0  0  0  0  0  0  0  0
  -18.4918   45.1208  -20.3932 C   0  0  0  0  0  0  0  0  0  0  0  0
  -17.6835   46.1459  -20.0786 N   0  0  0  0  0  0  0  0  0  0  0  0
  -18.0360   47.4972  -19.8287 C   0  0  0  0  0  0  0  0  0  0  0  0
  -19.2140   47.7537  -19.1529 C   0  0  0  0  0  0  0  0  0  0  0  0
  -19.5567   49.0718  -18.9182 C   0  0  0  0  0  0  0  0  0  0  0  0
  -18.7772   50.1206  -19.3276 C   0  0  0  0  0  0  0  0  0  0  0  0
  -19.1321   51.4211  -19.0880 F   0  0  0  0  0  0  0  0  0  0  0  0
  -17.6134   49.8098  -19.9965 C   0  0  0  0  0  0  0  0  0  0  0  0
  -17.2094   48.5180  -20.2654 C   0  0  0  0  0  0  0  0  0  0  0  0
  -16.4257   45.6718  -20.0340 C   0  0  0  0  0  0  0  0  0  0  0  0
  -15.2160   46.2821  -19.7593 C   0  0  0  0  0  0  0  0  0  0  0  0
  -14.0168   45.5729  -19.7697 C   0  0  0  0  0  0  0  0  0  0  0  0
  -14.0203   44.2252  -20.0597 C   0  0  0  0  0  0  0  0  0  0  0  0
  -12.5388   43.2858  -20.0833 Cl  0  0  0  0  0  0  0  0  0  0  0  0
  -15.2393   43.6317  -20.3320 C   0  0  0  0  0  0  0  0  0  0  0  0
  -16.4319   44.3253  -20.3242 C   0  0  0  0  0  0  0  0  0  0  0  0
  -19.3060   42.5397  -21.9182 C   0  0  0  0  0  0  0  0  0  0  0  0
  -19.8539   41.1304  -21.8006 C   0  0  0  0  0  0  0  0  0  0  0  0
  1  2  2  0
  2  3  1  0
  3  4  1  0
  4  5  1  0
  5  6  1  0
  6  7  1  0
  7  8  1  0
  8  9  1  0
  9 10  1  0
 10 11  1  0
 11 12  1  0
 12 13  1  0
 13 14  2  0
 14 15  1  0
 15 16  1  0
 16 17  2  0
 17 18  1  0
 18 19  2  0
 19 20  1  0
 19 21  1  0
 21 22  2  0
 15 23  1  0
 23 24  2  0
 24 25  1  0
 25 26  2  0
 26 27  1  0
 26 28  1  0
 28 29  2  0
 12 30  1  0
 30 31  1  0
  6  2  1  0
 31  9  1  0
 29 13  1  0
 22 16  1  0
 29 23  1  0
M  END
$$$$
