
     RDKit          3D

 28 30  0  0  0  0  0  0  0  0999 V2000
  -21.8123   24.7088  -38.4156 C   0  0  0  0  0  0  0  0  0  0  0  0
  -23.0599   24.6551  -37.6432 N   0  0  0  0  0  0  0  0  0  0  0  0
  -23.7640   23.5190  -37.5783 C   0  0  0  0  0  0  0  0  0  0  0  0
  -23.3158   22.5145  -38.1991 O   0  0  0  0  0  0  0  0  0  0  0  0
  -24.9380   23.3992  -36.8751 C   0  0  0  0  0  0  0  0  0  0  0  0
  -25.6449   22.2507  -36.8121 F   0  0  0  0  0  0  0  0  0  0  0  0
  -25.4463   24.5053  -36.1830 C   0  0  0  0  0  0  0  0  0  0  0  0
  -26.6401   24.3870  -35.4207 N   0  0  0  0  0  0  0  0  0  0  0  0
  -27.9354   24.2268  -35.9460 C   0  0  0  0  0  0  0  0  0  0  0  0
  -28.1317   24.3974  -37.3116 C   0  0  0  0  0  0  0  0  0  0  0  0
  -29.4002   24.2523  -37.8135 C   0  0  0  0  0  0  0  0  0  0  0  0
  -30.4721   23.9475  -37.0216 C   0  0  0  0  0  0  0  0  0  0  0  0
  -32.4297   23.7212  -37.7829 I   0  0  0  0  0  0  0  0  0  0  0  0
  -30.2860   23.7794  -35.6827 C   0  0  0  0  0  0  0  0  0  0  0  0
  -29.0152   23.9220  -35.1601 C   0  0  0  0  0  0  0  0  0  0  0  0
  -28.8374   23.7674  -33.8168 F   0  0  0  0  0  0  0  0  0  0  0  0
  -24.7076   25.6615  -36.2627 C   0  0  0  0  0  0  0  0  0  0  0  0
  -25.1238   26.8087  -35.5798 C   0  0  0  0  0  0  0  0  0  0  0  0
  -26.1974   26.7229  -34.9322 O   0  0  0  0  0  0  0  0  0  0  0  0
  -24.4251   27.9553  -35.6019 N   0  0  0  0  0  0  0  0  0  0  0  0
  -24.8491   29.1101  -34.8912 C   0  0  0  0  0  0  0  0  0  0  0  0
  -25.5909   30.1568  -35.6184 C   0  0  1  0  0  0  0  0  0  0  0  0
  -26.5745   29.7027  -36.4953 O   0  0  0  0  0  0  0  0  0  0  0  0
  -26.1769   31.2565  -34.7723 C   0  0  0  0  0  0  0  0  0  0  0  0
  -25.2904   31.7235  -33.8299 O   0  0  0  0  0  0  0  0  0  0  0  0
  -23.2752   27.9684  -36.3269 C   0  0  0  0  0  0  0  0  0  0  0  0
  -22.8489   26.8819  -36.9955 N   0  0  0  0  0  0  0  0  0  0  0  0
  -23.5282   25.7220  -36.9884 C   0  0  0  0  0  0  0  0  0  0  0  0
  1  2  1  0
  2  3  1  0
  3  4  2  0
  3  5  1  0
  5  6  1  0
  5  7  2  0
  7  8  1  0
  8  9  1  0
  9 10  2  0
 10 11  1  0
 11 12  2  0
 12 13  1  0
 12 14  1  0
 14 15  2  0
 15 16  1  0
  7 17  1  0
 17 18  1  0
 18 19  2  0
 18 20  1  0
 20 21  1  0
 21 22  1  0
 22 23  1  1
 22 24  1  0
 24 25  1  0
 20 26  1  0
 26 27  2  0
 27 28  1  0
 28  2  1  0
 15  9  1  0
 28 17  2  0
M  END
$$$$
