
     RDKit          3D

 15 16  0  0  0  0  0  0  0  0999 V2000
  -21.8956   35.5978  -21.1403 C   0  0  0  0  0  0  0  0  0  0  0  0
  -20.6452   36.2010  -21.5731 N   0  0  0  0  0  0  0  0  0  0  0  0
  -19.0317   35.7702  -20.9671 S   0  0  0  0  0  0  0  0  0  0  0  0
  -18.1980   36.9931  -22.0460 C   0  0  0  0  0  0  0  0  0  0  0  0
  -16.9382   37.1776  -22.0745 O   0  0  0  0  0  0  0  0  0  0  0  0
  -19.2120   37.5561  -22.7084 N   0  0  0  0  0  0  0  0  0  0  0  0
  -18.8767   38.6282  -23.6990 C   0  0  0  0  0  0  0  0  0  0  0  0
  -18.7776   39.9461  -23.0332 C   0  0  0  0  0  0  0  0  0  0  0  0
  -19.9047   40.7124  -22.8407 C   0  0  0  0  0  0  0  0  0  0  0  0
  -19.8597   41.9561  -22.2204 C   0  0  0  0  0  0  0  0  0  0  0  0
  -18.6283   42.4469  -21.7763 C   0  0  0  0  0  0  0  0  0  0  0  0
  -17.5035   41.6745  -21.9723 C   0  0  0  0  0  0  0  0  0  0  0  0
  -17.5738   40.4433  -22.5906 C   0  0  0  0  0  0  0  0  0  0  0  0
  -20.4189   37.1582  -22.4681 C   0  0  0  0  0  0  0  0  0  0  0  0
  -21.4434   37.6663  -23.0789 O   0  0  0  0  0  0  0  0  0  0  0  0
  1  2  1  0
  2  3  1  0
  3  4  1  0
  4  5  2  0
  4  6  1  0
  6  7  1  0
  7  8  1  0
  8  9  2  0
  9 10  1  0
 10 11  2  0
 11 12  1  0
 12 13  2  0
  6 14  1  0
 14 15  2  0
 14  2  1  0
 13  8  1  0
M  END
$$$$
