
     RDKit          3D

 46 48  0  0  0  0  0  0  0  0999 V2000
  -25.0336   16.8439  -37.1161 C   0  0  0  0  0  0  0  0  0  0  0  0
  -25.8649   15.8292  -36.3528 C   0  0  0  0  0  0  0  0  0  0  0  0
  -25.1578   15.4895  -35.0459 C   0  0  0  0  0  0  0  0  0  0  0  0
  -24.9857   16.6226  -34.2460 O   0  0  0  0  0  0  0  0  0  0  0  0
  -24.3691   16.5203  -33.0190 C   0  0  0  0  0  0  0  0  0  0  0  0
  -23.9126   15.3272  -32.5579 C   0  0  0  0  0  0  0  0  0  0  0  0
  -23.2870   15.2595  -31.2933 C   0  0  0  0  0  0  0  0  0  0  0  0
  -22.8636   14.0056  -30.9386 O   0  0  0  0  0  0  0  0  0  0  0  0
  -22.2536   13.5396  -29.8068 C   0  0  0  0  0  0  0  0  0  0  0  0
  -23.1592   13.6488  -28.5915 C   0  0  0  0  0  0  0  0  0  0  0  0
  -24.4054   12.8305  -28.7631 C   0  0  0  0  0  0  0  0  0  0  0  0
  -25.3747   12.8773  -27.6532 C   0  0  0  0  0  0  0  0  0  0  0  0
  -24.9845   12.4341  -26.3689 N   0  0  0  0  0  0  0  0  0  0  0  0
  -26.1866   12.5362  -25.5125 C   0  0  0  0  0  0  0  0  0  0  0  0
  -23.9527   13.1300  -25.6883 C   0  0  0  0  0  0  0  0  0  0  0  0
  -23.1637   16.4078  -30.5774 C   0  0  0  0  0  0  0  0  0  0  0  0
  -23.6160   17.6526  -31.0093 C   0  0  0  0  0  0  0  0  0  0  0  0
  -23.4600   18.7689  -30.2434 O   0  0  0  0  0  0  0  0  0  0  0  0
  -22.2930   19.5493  -30.2834 C   0  0  0  0  0  0  0  0  0  0  0  0
  -21.2081   19.2148  -31.0898 C   0  0  0  0  0  0  0  0  0  0  0  0
  -20.0796   19.9943  -31.1182 C   0  0  0  0  0  0  0  0  0  0  0  0
  -20.0217   21.1285  -30.3352 C   0  0  0  0  0  0  0  0  0  0  0  0
  -21.0875   21.4736  -29.5315 C   0  0  0  0  0  0  0  0  0  0  0  0
  -22.2474   20.6860  -29.4893 C   0  0  0  0  0  0  0  0  0  0  0  0
  -23.3467   20.9640  -28.6378 N   0  0  0  0  0  0  0  0  0  0  0  0
  -24.1266   22.4656  -28.6756 S   0  0  0  0  0  6  0  0  0  0  0  0
  -25.3821   22.3623  -27.8293 O   0  0  0  0  0  0  0  0  0  0  0  0
  -24.6544   22.6450  -30.1069 O   0  0  0  0  0  0  0  0  0  0  0  0
  -23.1937   23.8436  -28.2885 C   0  0  0  0  0  0  0  0  0  0  0  0
  -22.7452   24.6892  -29.2968 C   0  0  0  0  0  0  0  0  0  0  0  0
  -22.0232   25.8333  -29.0044 C   0  0  0  0  0  0  0  0  0  0  0  0
  -21.7309   26.1622  -27.7177 C   0  0  0  0  0  0  0  0  0  0  0  0
  -21.0172   27.2901  -27.3362 O   0  0  0  0  0  0  0  0  0  0  0  0
  -20.4968   28.2555  -28.1906 C   0  0  0  0  0  0  0  0  0  0  0  0
  -22.1681   25.3242  -26.6798 C   0  0  0  0  0  0  0  0  0  0  0  0
  -21.8818   25.6328  -25.4051 O   0  0  0  0  0  0  0  0  0  0  0  0
  -22.1153   25.0896  -24.2009 C   0  0  0  0  0  0  0  0  0  0  0  0
  -22.9039   24.1593  -26.9760 C   0  0  0  0  0  0  0  0  0  0  0  0
  -18.8152   21.6978  -30.5402 N   0  0  0  0  0  0  0  0  0  0  0  0
  -18.2721   22.9046  -29.9504 C   0  0  0  0  0  0  0  0  0  0  0  0
  -18.1478   20.9264  -31.4305 C   0  0  0  0  0  0  0  0  0  0  0  0
  -16.9765   21.1279  -31.8790 O   0  0  0  0  0  0  0  0  0  0  0  0
  -18.9276   19.8798  -31.7838 N   0  0  0  0  0  0  0  0  0  0  0  0
  -18.5557   18.8348  -32.7127 C   0  0  0  0  0  0  0  0  0  0  0  0
  -24.2163   17.6759  -32.2378 C   0  0  0  0  0  0  0  0  0  0  0  0
  -22.5103   19.5765  -29.8796 Cl  0  0  0  0  0  0  0  0  0  0  0  0
  1  2  1  0
  2  3  1  0
  3  4  1  0
  4  5  1  0
  5  6  2  0
  6  7  1  0
  7  8  1  0
  8  9  1  0
  9 10  1  0
 10 11  1  0
 11 12  1  0
 12 13  1  0
 13 14  1  0
 13 15  1  0
  7 16  2  0
 16 17  1  0
 17 18  1  0
 18 19  1  0
 19 20  2  0
 20 21  1  0
 21 22  2  0
 22 23  1  0
 23 24  2  0
 24 25  1  0
 25 26  1  0
 26 27  2  0
 26 28  2  0
 26 29  1  0
 29 30  2  0
 30 31  1  0
 31 32  2  0
 32 33  1  0
 33 34  1  0
 32 35  1  0
 35 36  1  0
 36 37  1  0
 35 38  2  0
 22 39  1  0
 39 40  1  0
 39 41  1  0
 41 42  2  0
 41 43  1  0
 43 44  1  0
 17 45  2  0
 45  5  1  0
 24 19  1  0
 38 29  1  0
 43 21  1  0
M  END
$$$$
