
     RDKit          3D

 34 37  0  0  0  0  0  0  0  0999 V2000
  -34.3867   12.7308  -15.6487 C   0  0  0  0  0  0  0  0  0  0  0  0
  -33.1177   12.6780  -16.2219 O   0  0  0  0  0  0  0  0  0  0  0  0
  -32.9051   12.0757  -17.4442 C   0  0  0  0  0  0  0  0  0  0  0  0
  -33.9250   11.5678  -18.2099 C   0  0  0  0  0  0  0  0  0  0  0  0
  -33.6896   10.9619  -19.4415 C   0  0  0  0  0  0  0  0  0  0  0  0
  -32.3877   10.8545  -19.9383 C   0  0  0  0  0  0  0  0  0  0  0  0
  -31.3583   11.3492  -19.1975 C   0  0  0  0  0  0  0  0  0  0  0  0
  -29.9574   11.2553  -19.6565 C   0  0  0  0  0  0  0  0  0  0  0  0
  -29.6118   12.1200  -20.7400 N   0  0  0  0  0  0  0  0  0  0  0  0
  -29.5226   13.5185  -20.5625 C   0  0  0  0  0  0  0  0  0  0  0  0
  -30.1436   14.0643  -19.5920 O   0  0  0  0  0  0  0  0  0  0  0  0
  -28.7659   14.4129  -21.4079 C   0  0  0  0  0  0  0  0  0  0  0  0
  -27.9148   13.9422  -22.3148 N   0  0  0  0  0  0  0  0  0  0  0  0
  -27.2362   14.7645  -23.0561 C   0  0  0  0  0  0  0  0  0  0  0  0
  -26.0066   14.4816  -24.4171 S   0  0  0  0  0  0  0  0  0  0  0  0
  -25.7005   16.2180  -24.7821 C   0  0  0  0  0  0  0  0  0  0  0  0
  -26.5265   16.8709  -23.8734 C   0  0  0  0  0  0  0  0  0  0  0  0
  -26.5002   18.3919  -23.8930 C   0  0  0  0  0  0  0  0  0  0  0  0
  -26.4787   18.9170  -25.1385 O   0  0  0  0  0  0  0  0  0  0  0  0
  -25.3264   19.3915  -25.6638 C   0  0  0  0  0  0  0  0  0  0  0  0
  -25.4806   20.6652  -26.4292 C   0  0  0  0  0  0  0  0  0  0  0  0
  -26.4474   20.7283  -27.3969 C   0  0  0  0  0  0  0  0  0  0  0  0
  -26.6214   21.8801  -28.1300 C   0  0  0  0  0  0  0  0  0  0  0  0
  -25.8539   22.9954  -27.9357 C   0  0  0  0  0  0  0  0  0  0  0  0
  -26.0367   24.2323  -28.7046 C   0  0  0  0  0  0  0  0  0  0  0  0
  -25.3126   25.2401  -28.4779 O   0  0  0  0  0  0  0  0  0  0  0  0
  -26.9975   24.2986  -29.6749 O   0  0  0  0  0  0  0  0  0  0  0  0
  -24.8767   22.9091  -26.9465 C   0  0  0  0  0  0  0  0  0  0  0  0
  -24.6803   21.7558  -26.1895 C   0  0  0  0  0  0  0  0  0  0  0  0
  -27.2685   16.1514  -23.0414 C   0  0  0  0  0  0  0  0  0  0  0  0
  -28.1949   16.6140  -22.0543 C   0  0  0  0  0  0  0  0  0  0  0  0
  -28.4027   17.8302  -21.8515 O   0  0  0  0  0  0  0  0  0  0  0  0
  -28.8804   15.7556  -21.3067 N   0  0  0  0  0  0  0  0  0  0  0  0
  -31.6177   11.9540  -17.9625 C   0  0  0  0  0  0  0  0  0  0  0  0
  1  2  1  0
  2  3  1  0
  3  4  2  0
  4  5  1  0
  5  6  2  0
  6  7  1  0
  7  8  1  0
  8  9  1  0
  9 10  1  0
 10 11  2  0
 10 12  1  0
 12 13  2  0
 13 14  1  0
 14 15  1  0
 15 16  1  0
 16 17  2  0
 17 18  1  0
 18 19  1  0
 19 20  1  0
 20 21  1  0
 21 22  2  0
 22 23  1  0
 23 24  2  0
 24 25  1  0
 25 26  2  0
 25 27  1  0
 24 28  1  0
 28 29  2  0
 17 30  1  0
 30 31  1  0
 31 32  2  0
 31 33  1  0
  7 34  2  0
 34  3  1  0
 33 12  1  0
 30 14  2  0
 29 21  1  0
M  END
$$$$
