
     RDKit          3D

 12 12  0  0  0  0  0  0  0  0999 V2000
  -21.1796   38.1427  -25.1891 C   0  0  0  0  0  0  0  0  0  0  0  0
  -21.4066   38.5632  -23.7452 C   0  0  0  0  0  0  0  0  0  0  0  0
  -22.8043   38.1110  -23.3295 C   0  0  0  0  0  0  0  0  0  0  0  0
  -20.4521   37.8491  -22.8334 C   0  0  0  0  0  0  0  0  0  0  0  0
  -19.4179   38.5593  -22.2981 C   0  0  0  0  0  0  0  0  0  0  0  0
  -18.3965   38.1564  -21.4346 C   0  0  0  0  0  0  0  0  0  0  0  0
  -18.0835   36.8554  -21.0941 C   0  0  0  0  0  0  0  0  0  0  0  0
  -18.8379   35.6992  -21.2312 C   0  0  0  0  0  0  0  0  0  0  0  0
  -18.3711   34.6236  -20.7754 O   0  0  0  0  0  0  0  0  0  0  0  0
  -20.0770   35.6113  -21.8314 C   0  0  0  0  0  0  0  0  0  0  0  0
  -20.8088   34.4469  -21.6165 O   0  0  0  0  0  0  0  0  0  0  0  0
  -20.7596   36.5177  -22.6507 C   0  0  0  0  0  0  0  0  0  0  0  0
  1  2  1  0
  2  3  1  0
  2  4  1  0
  4  5  2  0
  5  6  1  0
  6  7  2  0
  7  8  1  0
  8  9  2  0
  8 10  1  0
 10 11  1  0
 10 12  2  0
 12  4  1  0
M  END
$$$$
