
     RDKit          3D

 31 34  0  0  0  0  0  0  0  0999 V2000
  -12.2602   44.9277  -17.7352 C   0  0  0  0  0  0  0  0  0  0  0  0
  -13.2479   45.4312  -18.6500 O   0  0  0  0  0  0  0  0  0  0  0  0
  -14.2918   44.5764  -19.0663 C   0  0  0  0  0  0  0  0  0  0  0  0
  -15.3597   45.0703  -19.7704 C   0  0  0  0  0  0  0  0  0  0  0  0
  -16.3780   44.2213  -20.1737 C   0  0  0  0  0  0  0  0  0  0  0  0
  -16.3288   42.8771  -19.8735 C   0  0  0  0  0  0  0  0  0  0  0  0
  -17.4403   42.0317  -20.3419 C   0  0  0  0  0  0  0  0  0  0  0  0
  -17.6359   40.7424  -19.9015 C   0  0  0  0  0  0  0  0  0  0  0  0
  -18.7236   40.0117  -20.3945 C   0  0  0  0  0  0  0  0  0  0  0  0
  -18.9357   38.7119  -19.9496 C   0  0  0  0  0  0  0  0  0  0  0  0
  -17.9614   38.1710  -18.9635 C   0  0  0  0  0  0  0  0  0  0  0  0
  -19.9750   37.9915  -20.3988 N   0  0  0  0  0  0  0  0  0  0  0  0
  -20.8313   38.5453  -21.3026 C   0  0  0  0  0  0  0  0  0  0  0  0
  -21.9331   37.7732  -21.7771 N   0  0  0  0  0  0  0  0  0  0  0  0
  -20.6166   39.7981  -21.7240 N   0  0  0  0  0  0  0  0  0  0  0  0
  -19.5882   40.5755  -21.3099 C   0  0  0  0  0  0  0  0  0  0  0  0
  -19.3984   41.8515  -21.7497 N   0  0  0  0  0  0  0  0  0  0  0  0
  -20.3611   42.3220  -22.6998 C   0  0  1  0  0  0  0  0  0  0  0  0
  -21.3440   43.3136  -22.2951 C   0  0  0  0  0  0  0  0  0  0  0  0
  -21.0577   44.7579  -22.6089 C   0  0  0  0  0  0  0  0  0  0  0  0
  -20.8335   44.8095  -24.1302 C   0  0  2  0  0  0  0  0  0  0  0  0
  -21.7715   43.9982  -24.7606 O   0  0  0  0  0  0  0  0  0  0  0  0
  -23.0316   44.5869  -24.7989 C   0  0  0  0  0  0  0  0  0  0  0  0
  -23.0444   45.5919  -25.9353 C   0  0  0  0  0  0  0  0  0  0  0  0
  -22.7550   44.9777  -27.1510 O   0  0  0  0  0  0  0  0  0  0  0  0
  -19.4843   44.1160  -24.2808 C   0  0  0  0  0  0  0  0  0  0  0  0
  -19.7199   42.6634  -24.0106 C   0  0  0  0  0  0  0  0  0  0  0  0
  -18.3572   42.5157  -21.2604 C   0  0  0  0  0  0  0  0  0  0  0  0
  -18.1590   43.6918  -21.6441 O   0  0  0  0  0  0  0  0  0  0  0  0
  -15.2515   42.4083  -19.1695 C   0  0  0  0  0  0  0  0  0  0  0  0
  -14.2583   43.2641  -18.7814 N   0  0  0  0  0  0  0  0  0  0  0  0
  1  2  1  0
  2  3  1  0
  3  4  2  0
  4  5  1  0
  5  6  2  0
  6  7  1  0
  7  8  2  0
  8  9  1  0
  9 10  2  0
 10 11  1  0
 10 12  1  0
 12 13  2  0
 13 14  1  0
 13 15  1  0
 15 16  2  0
 16 17  1  0
 18 17  1  1
 18 19  1  0
 19 20  1  0
 20 21  1  0
 21 22  1  6
 22 23  1  0
 23 24  1  0
 24 25  1  0
 21 26  1  0
 26 27  1  0
 17 28  1  0
 28 29  2  0
  6 30  1  0
 30 31  2  0
 31  3  1  0
 28  7  1  0
 16  9  1  0
 27 18  1  0
M  END
$$$$
