
     RDKit          3D

 14 16  0  0  0  0  0  0  0  0999 V2000
   -2.6631   15.5243  -21.8241 N   0  0  0  0  0  0  0  0  0  0  0  0
   -1.5430   15.7625  -20.9538 C   0  0  0  0  0  0  0  0  0  0  0  0
   -0.4956   16.3122  -20.8890 N   0  0  0  0  0  0  0  0  0  0  0  0
    0.3542   16.3478  -19.8961 C   0  0  0  0  0  0  0  0  0  0  0  0
   -0.0170   15.6538  -18.7751 C   0  0  0  0  0  0  0  0  0  0  0  0
    0.7603   15.5798  -17.6227 C   0  0  0  0  0  0  0  0  0  0  0  0
    1.9763   16.2263  -17.5666 C   0  0  0  0  0  0  0  0  0  0  0  0
    2.3608   16.9352  -18.7051 C   0  0  0  0  0  0  0  0  0  0  0  0
    3.6067   17.5754  -18.5967 C   0  0  0  0  0  0  0  0  0  0  0  0
    4.0441   18.2913  -19.6842 C   0  0  0  0  0  0  0  0  0  0  0  0
    3.2680   18.3632  -20.8302 C   0  0  0  0  0  0  0  0  0  0  0  0
    2.0538   17.7317  -20.9185 C   0  0  0  0  0  0  0  0  0  0  0  0
    1.5978   17.0083  -19.8373 C   0  0  0  0  0  0  0  0  0  0  0  0
   -1.5954   14.9819  -19.2311 S   0  0  0  0  0  0  0  0  0  0  0  0
  1  2  1  0
  2  3  2  0
  3  4  1  0
  4  5  2  0
  5  6  1  0
  6  7  2  0
  7  8  1  0
  8  9  2  0
  9 10  1  0
 10 11  2  0
 11 12  1  0
 12 13  2  0
  5 14  1  0
 14  2  1  0
 13  4  1  0
 13  8  1  0
M  END
$$$$
