
     RDKit          3D

 29 28  0  0  0  0  0  0  0  0999 V2000
  -21.2947   35.0126  -22.8016 C   0  0  0  0  0  0  0  0  0  0  0  0
  -20.0151   35.8213  -23.0055 C   0  0  1  0  0  0  0  0  0  0  0  0
  -19.7781   35.8378  -24.3817 O   0  0  0  0  0  0  0  0  0  0  0  0
  -20.1866   37.2399  -22.5104 C   0  0  1  0  0  0  0  0  0  0  0  0
  -20.5124   37.2342  -21.0676 C   0  0  0  0  0  0  0  0  0  0  0  0
  -21.2502   36.5472  -20.3456 O   0  0  0  0  0  0  0  0  0  0  0  0
  -19.6331   38.3206  -20.9158 N   0  0  0  0  0  0  0  0  0  0  0  0
  -18.9408   39.5192  -20.4453 C   0  0  0  0  0  0  0  0  0  0  0  0
  -18.9064   39.8357  -19.0306 C   0  0  0  0  0  0  0  0  0  0  0  0
  -19.5482   39.1069  -18.1942 O   0  0  0  0  0  0  0  0  0  0  0  0
  -18.2270   40.8770  -18.4659 O   0  0  0  0  0  0  0  0  0  0  0  0
  -18.3746   40.1531  -21.4327 C   0  0  0  0  0  0  0  0  0  0  0  0
  -17.4306   41.6036  -21.5647 S   0  0  0  0  0  0  0  0  0  0  0  0
  -17.3777   42.8454  -20.3605 C   0  0  2  0  0  0  0  0  0  0  0  0
  -18.6684   43.6077  -20.1385 C   0  0  0  0  0  0  0  0  0  0  0  0
  -18.2799   44.9250  -19.6716 N   0  0  0  0  0  0  0  0  0  0  0  0
  -16.9534   45.1701  -20.1333 C   0  0  2  0  0  0  0  0  0  0  0  0
  -16.8998   46.4865  -20.7940 C   0  0  0  0  0  0  0  0  0  0  0  0
  -17.9515   47.1725  -20.8543 O   0  0  0  0  0  0  0  0  0  0  0  0
  -15.7137   47.0198  -21.3683 N   0  0  0  0  0  0  0  0  0  0  0  0
  -14.4524   46.2921  -21.3418 C   0  0  0  0  0  0  0  0  0  0  0  0
  -15.7261   48.3153  -22.0032 C   0  0  0  0  0  0  0  0  0  0  0  0
  -16.5708   44.0386  -21.0277 C   0  0  0  0  0  0  0  0  0  0  0  0
  -18.6259   39.2722  -22.6873 C   0  0  2  0  0  0  0  0  0  0  0  0
  -19.7427   39.8988  -23.4468 C   0  0  0  0  0  0  0  0  0  0  0  0
  -18.8947   37.9255  -22.1332 C   0  0  2  0  0  0  0  0  0  0  0  0
  -17.9672   41.3197  -21.4759 O   0  0  0  0  0  0  0  0  0  0  0  0
  -17.9857   41.3299  -21.4735 O   0  0  0  0  0  0  0  0  0  0  0  0
  -17.9493   41.3178  -21.4768 O   0  0  0  0  0  0  0  0  0  0  0  0
  2  1  1  6
  2  3  1  0
  2  4  1  0
  4  5  1  1
  5  6  2  0
  5  7  1  0
  7  8  1  0
  8  9  1  0
  9 10  2  0
  9 11  1  0
  8 12  2  0
 12 13  1  0
 14 13  1  6
 14 15  1  0
 15 16  1  0
 16 17  1  0
 17 18  1  6
 18 19  2  0
 18 20  1  0
 20 21  1  0
 20 22  1  0
 17 23  1  0
 12 24  1  0
 24 25  1  1
 24 26  1  0
 26  4  1  0
 26  7  1  1
 23 14  1  0
M  END
$$$$
