
     RDKit          3D

 36 40  0  0  0  0  0  0  0  0999 V2000
  -26.8359   23.8931  -33.5187 C   0  0  0  0  0  0  0  0  0  0  0  0
  -26.2306   24.2824  -32.2349 C   0  0  0  0  0  0  0  0  0  0  0  0
  -26.1344   25.5000  -31.9555 O   0  0  0  0  0  0  0  0  0  0  0  0
  -25.7503   23.3325  -31.2987 N   0  0  0  0  0  0  0  0  0  0  0  0
  -25.5765   23.6857  -29.8979 C   0  0  0  0  0  0  0  0  0  0  0  0
  -24.2498   23.1763  -29.3739 C   0  0  0  0  0  0  0  0  0  0  0  0
  -24.0107   21.8190  -29.8537 N   0  0  0  0  0  0  0  0  0  0  0  0
  -22.7517   21.1921  -29.6892 C   0  0  0  0  0  0  0  0  0  0  0  0
  -22.2418   20.4502  -30.7652 C   0  0  0  0  0  0  0  0  0  0  0  0
  -21.0302   19.8184  -30.6721 C   0  0  0  0  0  0  0  0  0  0  0  0
  -20.2364   19.8735  -29.5125 C   0  0  0  0  0  0  0  0  0  0  0  0
  -19.0371   19.2044  -29.5159 O   0  0  0  0  0  0  0  0  0  0  0  0
  -18.6916   17.9889  -30.0541 C   0  0  0  0  0  0  0  0  0  0  0  0
  -17.5605   17.2489  -29.4297 C   0  0  2  0  0  0  0  0  0  0  0  0
  -16.4260   17.1821  -30.4719 C   0  0  0  0  0  0  0  0  0  0  0  0
  -16.9383   16.2361  -31.3499 O   0  0  0  0  0  0  0  0  0  0  0  0
  -17.3429   15.2321  -30.4031 C   0  0  1  0  0  0  0  0  0  0  0  0
  -18.3912   14.4670  -31.2067 C   0  0  0  0  0  0  0  0  0  0  0  0
  -19.1551   15.1557  -32.1646 N   0  0  0  0  0  0  0  0  0  0  0  0
  -20.4583   15.5444  -32.0428 C   0  0  0  0  0  0  0  0  0  0  0  0
  -20.7818   16.2364  -33.1734 C   0  0  0  0  0  0  0  0  0  0  0  0
  -19.6898   16.2557  -33.9481 N   0  0  0  0  0  0  0  0  0  0  0  0
  -18.6822   15.6043  -33.3582 C   0  0  0  0  0  0  0  0  0  0  0  0
  -16.1151   14.4626  -30.1463 C   0  0  0  0  0  0  0  0  0  0  0  0
  -15.2585   14.1062  -31.2027 C   0  0  0  0  0  0  0  0  0  0  0  0
  -14.1601   13.2930  -31.0161 C   0  0  0  0  0  0  0  0  0  0  0  0
  -13.8492   12.7899  -29.7852 C   0  0  0  0  0  0  0  0  0  0  0  0
  -12.4519   11.7709  -29.6277 Cl  0  0  0  0  0  0  0  0  0  0  0  0
  -14.6657   13.1170  -28.7170 C   0  0  0  0  0  0  0  0  0  0  0  0
  -15.7690   13.9408  -28.9237 C   0  0  0  0  0  0  0  0  0  0  0  0
  -16.6552   14.3957  -27.4658 Cl  0  0  0  0  0  0  0  0  0  0  0  0
  -17.9060   15.8866  -29.3697 O   0  0  0  0  0  0  0  0  0  0  0  0
  -20.7458   20.6012  -28.4672 C   0  0  0  0  0  0  0  0  0  0  0  0
  -21.9827   21.2445  -28.5669 C   0  0  0  0  0  0  0  0  0  0  0  0
  -25.1020   21.1395  -30.4999 C   0  0  0  0  0  0  0  0  0  0  0  0
  -25.4242   21.9810  -31.7468 C   0  0  0  0  0  0  0  0  0  0  0  0
  1  2  1  0
  2  3  2  0
  2  4  1  0
  4  5  1  0
  5  6  1  0
  6  7  1  0
  7  8  1  0
  8  9  2  0
  9 10  1  0
 10 11  2  0
 11 12  1  0
 12 13  1  0
 14 13  1  6
 14 15  1  0
 15 16  1  0
 16 17  1  0
 17 18  1  6
 18 19  1  0
 19 20  1  0
 20 21  2  0
 21 22  1  0
 22 23  2  0
 17 24  1  0
 24 25  2  0
 25 26  1  0
 26 27  2  0
 27 28  1  0
 27 29  1  0
 29 30  2  0
 30 31  1  0
 17 32  1  0
 11 33  1  0
 33 34  2  0
  7 35  1  0
 35 36  1  0
 36  4  1  0
 34  8  1  0
 32 14  1  0
 23 19  1  0
 30 24  1  0
M  END
$$$$
