
     RDKit          3D

 40 45  0  0  0  0  0  0  0  0999 V2000
  -25.5047   24.0331  -30.1821 C   0  0  0  0  0  0  0  0  0  0  0  0
  -25.0253   24.1971  -28.7604 C   0  0  0  0  0  0  0  0  0  0  0  0
  -23.9795   25.2912  -28.7032 C   0  0  0  0  0  0  0  0  0  0  0  0
  -26.1869   24.5862  -27.8692 C   0  0  0  0  0  0  0  0  0  0  0  0
  -24.4469   22.9605  -28.2182 C   0  0  0  0  0  0  0  0  0  0  0  0
  -25.1029   21.8104  -27.7616 C   0  0  0  0  0  0  0  0  0  0  0  0
  -24.1139   20.9508  -27.3614 C   0  0  0  0  0  0  0  0  0  0  0  0
  -24.2303   19.6543  -26.8199 N   0  0  0  0  0  0  0  0  0  0  0  0
  -25.2342   19.2671  -25.8952 C   0  0  0  0  0  0  0  0  0  0  0  0
  -26.1938   20.0364  -25.7492 O   0  0  0  0  0  0  0  0  0  0  0  0
  -25.1800   18.0675  -25.1544 N   0  0  0  0  0  0  0  0  0  0  0  0
  -26.1968   17.5248  -24.3309 C   0  0  0  0  0  0  0  0  0  0  0  0
  -26.6368   16.2279  -24.5937 C   0  0  0  0  0  0  0  0  0  0  0  0
  -27.6199   15.6276  -23.8379 C   0  0  0  0  0  0  0  0  0  0  0  0
  -28.2120   16.2848  -22.7870 C   0  0  0  0  0  0  0  0  0  0  0  0
  -29.2548   15.6394  -21.9856 C   0  0  0  0  0  0  0  0  0  0  0  0
  -29.0999   14.5339  -21.1836 C   0  0  0  0  0  0  0  0  0  0  0  0
  -30.3151   14.2104  -20.5754 N   0  0  0  0  0  0  0  0  0  0  0  0
  -31.0968   15.1315  -21.0503 C   0  0  0  0  0  0  0  0  0  0  0  0
  -30.5397   16.0024  -21.8834 N   0  0  0  0  0  0  0  0  0  0  0  0
  -32.7214   14.7350  -20.2626 S   0  0  0  0  0  0  0  0  0  0  0  0
  -32.0558   13.3163  -19.3711 C   0  0  0  0  0  0  0  0  0  0  0  0
  -32.6794   12.4365  -18.5091 C   0  0  0  0  0  0  0  0  0  0  0  0
  -31.9462   11.4002  -17.9306 C   0  0  0  0  0  0  0  0  0  0  0  0
  -32.5036   10.4928  -17.0666 O   0  0  0  0  0  0  0  0  0  0  0  0
  -33.2709    9.4268  -17.5805 C   0  0  0  0  0  0  0  0  0  0  0  0
  -33.6934    8.4403  -16.5473 C   0  0  0  0  0  0  0  0  0  0  0  0
  -34.5325    7.3927  -17.0047 N   0  0  0  0  0  0  0  0  0  0  0  0
  -35.2653    6.6675  -16.0216 C   0  0  0  0  0  0  0  0  0  0  0  0
  -34.3383    5.8060  -15.1766 C   0  0  0  0  0  0  0  0  0  0  0  0
  -33.0327    5.8340  -15.5864 O   0  0  0  0  0  0  0  0  0  0  0  0
  -32.8146    5.7303  -16.9359 C   0  0  0  0  0  0  0  0  0  0  0  0
  -33.8034    6.4344  -17.8066 C   0  0  0  0  0  0  0  0  0  0  0  0
  -30.6255   11.3420  -18.2787 C   0  0  0  0  0  0  0  0  0  0  0  0
  -30.0315   12.2267  -19.1355 C   0  0  0  0  0  0  0  0  0  0  0  0
  -30.7418   13.2849  -19.7377 C   0  0  0  0  0  0  0  0  0  0  0  0
  -27.7903   17.5501  -22.5223 C   0  0  0  0  0  0  0  0  0  0  0  0
  -26.7962   18.1703  -23.2789 C   0  0  0  0  0  0  0  0  0  0  0  0
  -22.9509   21.5813  -27.5797 N   0  0  0  0  0  0  0  0  0  0  0  0
  -23.1729   22.7408  -28.0753 O   0  0  0  0  0  0  0  0  0  0  0  0
  1  2  1  0
  2  3  1  0
  2  4  1  0
  2  5  1  0
  5  6  2  0
  6  7  1  0
  7  8  1  0
  8  9  1  0
  9 10  2  0
  9 11  1  0
 11 12  1  0
 12 13  2  0
 13 14  1  0
 14 15  2  0
 15 16  1  0
 16 17  2  0
 17 18  1  0
 18 19  1  0
 19 20  2  0
 19 21  1  0
 21 22  1  0
 22 23  2  0
 23 24  1  0
 24 25  1  0
 25 26  1  0
 26 27  1  0
 27 28  1  0
 28 29  1  0
 29 30  1  0
 30 31  1  0
 31 32  1  0
 32 33  1  0
 24 34  2  0
 34 35  1  0
 35 36  2  0
 15 37  1  0
 37 38  2  0
  7 39  2  0
 39 40  1  0
 40  5  1  0
 38 12  1  0
 20 16  1  0
 36 22  1  0
 36 18  1  0
 33 28  1  0
M  END
$$$$
