
     RDKit          3D

 13 14  0  0  0  0  0  0  0  0999 V2000
  -19.2149   33.4257  -21.2599 C   0  0  0  0  0  0  0  0  0  0  0  0
  -19.6422   34.5391  -21.2280 C   0  0  0  0  0  0  0  0  0  0  0  0
  -20.1854   35.9155  -21.2083 C   0  0  0  0  0  0  0  0  0  0  0  0
  -20.2115   36.3615  -22.5765 N   0  0  0  0  0  0  0  0  0  0  0  0
  -18.9957   36.9274  -23.0613 C   0  0  1  0  0  0  0  0  0  0  0  0
  -19.2110   37.4339  -24.4718 C   0  0  0  0  0  0  0  0  0  0  0  0
  -20.0443   38.6795  -24.1927 C   0  0  0  0  0  0  0  0  0  0  0  0
  -19.2728   39.2576  -23.0347 C   0  0  0  0  0  0  0  0  0  0  0  0
  -19.0982   40.5366  -22.5727 C   0  0  0  0  0  0  0  0  0  0  0  0
  -18.3359   40.8076  -21.4796 C   0  0  0  0  0  0  0  0  0  0  0  0
  -17.7175   39.7848  -20.8088 C   0  0  0  0  0  0  0  0  0  0  0  0
  -17.8970   38.4840  -21.2815 C   0  0  0  0  0  0  0  0  0  0  0  0
  -18.6635   38.2124  -22.3806 C   0  0  0  0  0  0  0  0  0  0  0  0
  1  2  3  0
  2  3  1  0
  3  4  1  0
  5  4  1  1
  5  6  1  0
  6  7  1  0
  7  8  1  0
  8  9  2  0
  9 10  1  0
 10 11  2  0
 11 12  1  0
 12 13  2  0
 13  5  1  0
 13  8  1  0
M  END
$$$$
