
     RDKit          3D

 25 27  0  0  0  0  0  0  0  0999 V2000
  -21.3052   45.9941  -22.4104 C   0  0  0  0  0  0  0  0  0  0  0  0
  -19.9197   45.6334  -22.0615 N   0  0  0  0  0  0  0  0  0  0  0  0
  -19.2729   44.6442  -22.8849 C   0  0  0  0  0  0  0  0  0  0  0  0
  -18.4594   43.7671  -21.9751 C   0  0  0  0  0  0  0  0  0  0  0  0
  -17.8111   42.7045  -22.5357 O   0  0  0  0  0  0  0  0  0  0  0  0
  -17.8836   41.3640  -22.3912 C   0  0  0  0  0  0  0  0  0  0  0  0
  -18.0089   40.5907  -23.5546 C   0  0  0  0  0  0  0  0  0  0  0  0
  -18.0914   39.2160  -23.5083 C   0  0  0  0  0  0  0  0  0  0  0  0
  -18.0551   38.5399  -22.3211 C   0  0  0  0  0  0  0  0  0  0  0  0
  -18.1415   37.0628  -22.2660 C   0  0  0  0  0  0  0  0  0  0  0  0
  -19.5481   36.6423  -22.5347 C   0  0  0  0  0  0  0  0  0  0  0  0
  -20.6385   37.0148  -21.1003 S   0  0  0  0  0  0  0  0  0  0  0  0
  -21.5596   35.4535  -21.1262 C   0  0  0  0  0  0  0  0  0  0  0  0
  -22.5106   35.1642  -20.3369 O   0  0  0  0  0  0  0  0  0  0  0  0
  -20.9681   34.7245  -22.1783 N   0  0  0  0  0  0  0  0  0  0  0  0
  -19.6830   35.1447  -22.5275 C   0  0  0  0  0  0  0  0  0  0  0  0
  -18.6998   34.4146  -22.8162 O   0  0  0  0  0  0  0  0  0  0  0  0
  -17.9337   39.2633  -21.1618 C   0  0  0  0  0  0  0  0  0  0  0  0
  -17.8511   40.6504  -21.2185 C   0  0  0  0  0  0  0  0  0  0  0  0
  -19.3376   46.2909  -20.9500 C   0  0  0  0  0  0  0  0  0  0  0  0
  -18.0545   46.0522  -20.5237 C   0  0  0  0  0  0  0  0  0  0  0  0
  -17.5061   46.7084  -19.4368 C   0  0  0  0  0  0  0  0  0  0  0  0
  -18.2619   47.6285  -18.7585 C   0  0  0  0  0  0  0  0  0  0  0  0
  -19.5440   47.8600  -19.1927 C   0  0  0  0  0  0  0  0  0  0  0  0
  -20.0590   47.2144  -20.2481 N   0  0  0  0  0  0  0  0  0  0  0  0
  1  2  1  0
  2  3  1  0
  3  4  1  0
  4  5  1  0
  5  6  1  0
  6  7  2  0
  7  8  1  0
  8  9  2  0
  9 10  1  0
 10 11  1  0
 11 12  1  0
 12 13  1  0
 13 14  2  0
 13 15  1  0
 15 16  1  0
 16 17  2  0
  9 18  1  0
 18 19  2  0
  2 20  1  0
 20 21  2  0
 21 22  1  0
 22 23  2  0
 23 24  1  0
 24 25  2  0
 19  6  1  0
 25 20  1  0
 16 11  1  0
M  END
$$$$
