
     RDKit          3D

 36 40  0  0  0  0  0  0  0  0999 V2000
  -21.2154   33.2311  -19.9359 C   0  0  0  0  0  0  0  0  0  0  0  0
  -19.9610   33.8051  -20.2386 O   0  0  0  0  0  0  0  0  0  0  0  0
  -19.8576   35.0663  -20.8236 C   0  0  0  0  0  0  0  0  0  0  0  0
  -20.7715   35.5590  -21.7065 C   0  0  0  0  0  0  0  0  0  0  0  0
  -20.6211   36.8042  -22.2512 C   0  0  0  0  0  0  0  0  0  0  0  0
  -21.5297   37.2902  -23.1274 N   0  0  0  0  0  0  0  0  0  0  0  0
  -21.4252   38.5030  -23.6872 C   0  0  0  0  0  0  0  0  0  0  0  0
  -22.4278   38.9220  -24.5942 N   0  0  0  0  0  0  0  0  0  0  0  0
  -22.0243   39.9173  -25.5427 C   0  0  0  0  0  0  0  0  0  0  0  0
  -23.0532   41.0272  -25.6353 C   0  0  0  0  0  0  0  0  0  0  0  0
  -24.4450   40.4800  -25.8814 C   0  0  0  0  0  0  0  0  0  0  0  0
  -24.4516   39.2593  -26.6156 N   0  0  0  0  0  0  0  0  0  0  0  0
  -25.6871   39.1729  -27.3692 C   0  0  0  0  0  0  0  0  0  0  0  0
  -24.2989   38.0738  -25.8407 C   0  0  0  0  0  0  0  0  0  0  0  0
  -23.7378   38.3071  -24.4665 C   0  0  0  0  0  0  0  0  0  0  0  0
  -20.3762   39.2712  -23.3678 N   0  0  0  0  0  0  0  0  0  0  0  0
  -19.4098   38.8747  -22.4985 C   0  0  0  0  0  0  0  0  0  0  0  0
  -18.3162   39.7063  -22.1835 N   0  0  0  0  0  0  0  0  0  0  0  0
  -18.0464   40.9372  -22.9074 C   0  0  0  0  0  0  0  0  0  0  0  0
  -19.2320   41.8238  -23.0697 C   0  0  0  0  0  0  0  0  0  0  0  0
  -19.0852   43.0090  -22.1396 C   0  0  0  0  0  0  0  0  0  0  0  0
  -17.9048   43.8129  -22.4537 N   0  0  0  0  0  0  0  0  0  0  0  0
  -17.5598   44.5281  -21.2675 C   0  0  0  0  0  0  0  0  0  0  0  0
  -16.1194   44.8413  -21.1483 C   0  0  0  0  0  0  0  0  0  0  0  0
  -15.3716   45.4052  -22.1522 C   0  0  0  0  0  0  0  0  0  0  0  0
  -14.0145   45.6742  -21.9452 C   0  0  0  0  0  0  0  0  0  0  0  0
  -13.3991   45.3870  -20.7513 C   0  0  0  0  0  0  0  0  0  0  0  0
  -14.1480   44.8235  -19.7490 C   0  0  0  0  0  0  0  0  0  0  0  0
  -15.4872   44.5560  -19.9478 C   0  0  0  0  0  0  0  0  0  0  0  0
  -16.8129   43.0174  -22.9040 C   0  0  0  0  0  0  0  0  0  0  0  0
  -16.8699   41.6293  -22.2671 C   0  0  0  0  0  0  0  0  0  0  0  0
  -19.5336   37.6308  -21.9357 C   0  0  0  0  0  0  0  0  0  0  0  0
  -18.6287   37.1051  -21.0417 C   0  0  0  0  0  0  0  0  0  0  0  0
  -18.7830   35.8409  -20.4897 C   0  0  0  0  0  0  0  0  0  0  0  0
  -17.8148   35.3741  -19.5831 O   0  0  0  0  0  0  0  0  0  0  0  0
  -16.5490   35.0417  -20.0754 C   0  0  0  0  0  0  0  0  0  0  0  0
  1  2  1  0
  2  3  1  0
  3  4  2  0
  4  5  1  0
  5  6  2  0
  6  7  1  0
  7  8  1  0
  8  9  1  0
  9 10  1  0
 10 11  1  0
 11 12  1  0
 12 13  1  0
 12 14  1  0
 14 15  1  0
  7 16  2  0
 16 17  1  0
 17 18  1  0
 18 19  1  0
 19 20  1  0
 20 21  1  0
 21 22  1  0
 22 23  1  0
 23 24  1  0
 24 25  2  0
 25 26  1  0
 26 27  2  0
 27 28  1  0
 28 29  2  0
 22 30  1  0
 30 31  1  0
 17 32  2  0
 32 33  1  0
 33 34  2  0
 34 35  1  0
 35 36  1  0
 34  3  1  0
 32  5  1  0
 15  8  1  0
 31 19  1  0
 29 24  1  0
M  END
$$$$
