
     RDKit          3D

 30 32  0  0  0  0  0  0  0  0999 V2000
  -17.1422   46.7511  -20.5615 C   0  0  0  0  0  0  0  0  0  0  0  0
  -16.3995   45.6195  -19.9573 C   0  0  0  0  0  0  0  0  0  0  0  0
  -15.3965   45.7945  -19.0374 C   0  0  0  0  0  0  0  0  0  0  0  0
  -14.6930   44.7589  -18.4568 C   0  0  0  0  0  0  0  0  0  0  0  0
  -15.0015   43.4686  -18.8083 C   0  0  0  0  0  0  0  0  0  0  0  0
  -16.0195   43.2687  -19.7428 C   0  0  0  0  0  0  0  0  0  0  0  0
  -16.7177   44.3040  -20.3192 C   0  0  0  0  0  0  0  0  0  0  0  0
  -17.8112   44.1428  -21.3050 C   0  0  0  0  0  0  0  0  0  0  0  0
  -17.9448   42.7663  -21.7699 C   0  0  0  0  0  0  0  0  0  0  0  0
  -16.9393   42.1077  -22.0838 O   0  0  0  0  0  0  0  0  0  0  0  0
  -19.3090   42.2191  -21.8388 C   0  0  0  0  0  0  0  0  0  0  0  0
  -20.7924   43.0960  -21.4589 S   0  0  0  0  0  0  0  0  0  0  0  0
  -21.9114   41.7108  -21.7878 C   0  0  0  0  0  0  0  0  0  0  0  0
  -21.0444   40.7202  -22.1538 C   0  0  0  0  0  0  0  0  0  0  0  0
  -19.7304   40.9401  -22.1896 C   0  0  0  0  0  0  0  0  0  0  0  0
  -18.5168   39.7304  -22.6438 S   0  0  0  0  0  6  0  0  0  0  0  0
  -17.7226   40.2020  -23.8508 O   0  0  0  0  0  0  0  0  0  0  0  0
  -17.4811   39.6592  -21.5134 O   0  0  0  0  0  0  0  0  0  0  0  0
  -19.1278   38.2033  -22.9825 N   0  0  0  0  0  2  0  0  0  0  0  0
  -19.8136   37.3121  -22.1658 C   0  0  0  0  0  0  0  0  0  0  0  0
  -21.1002   37.1944  -22.0099 O   0  0  0  0  0  0  0  0  0  0  0  0
  -21.4311   36.2781  -21.1831 N   0  0  0  0  0  0  0  0  0  0  0  0
  -20.3129   35.6821  -20.6985 C   0  0  0  0  0  0  0  0  0  0  0  0
  -20.1903   34.5816  -19.7173 C   0  0  0  0  0  0  0  0  0  0  0  0
  -19.2769   36.3317  -21.3176 C   0  0  0  0  0  0  0  0  0  0  0  0
  -17.5559   36.0731  -21.1589 Cl  0  0  0  0  0  0  0  0  0  0  0  0
  -14.1758   42.6148  -18.1073 O   0  0  0  0  0  0  0  0  0  0  0  0
  -13.4763   43.3350  -17.1159 C   0  0  0  0  0  0  0  0  0  0  0  0
  -13.6633   44.6772  -17.5272 O   0  0  0  0  0  0  0  0  0  0  0  0
  -17.8917   41.4682  -20.5699 Na  0  0  0  0  0 15  0  0  0  0  0  0
  1  2  1  0
  2  3  2  0
  3  4  1  0
  4  5  2  0
  5  6  1  0
  6  7  2  0
  7  8  1  0
  8  9  1  0
  9 10  2  0
  9 11  1  0
 11 12  1  0
 12 13  1  0
 13 14  2  0
 14 15  1  0
 15 16  1  0
 16 17  2  0
 16 18  2  0
 16 19  1  0
 19 20  1  0
 20 21  1  0
 21 22  1  0
 22 23  2  0
 23 24  1  0
 23 25  1  0
 25 26  1  0
  5 27  1  0
 27 28  1  0
 28 29  1  0
  7  2  1  0
 15 11  2  0
 25 20  2  0
 29  4  1  0
M  CHG  2  19  -1  30   1
M  END
$$$$
