
     RDKit          3D

 38 42  0  0  0  0  0  0  0  0999 V2000
  -15.1319   16.5221  -46.9987 C   0  0  0  0  0  0  0  0  0  0  0  0
  -15.6754   17.6028  -46.2852 O   0  0  0  0  0  0  0  0  0  0  0  0
  -14.8680   18.5254  -45.6276 C   0  0  0  0  0  0  0  0  0  0  0  0
  -13.6765   18.9137  -46.2584 C   0  0  0  0  0  0  0  0  0  0  0  0
  -12.8231   19.8244  -45.6691 C   0  0  0  0  0  0  0  0  0  0  0  0
  -11.6293   20.2117  -46.3130 N   0  0  0  0  0  0  0  0  0  0  0  0
  -11.2640   21.6305  -46.2752 C   0  0  0  0  0  0  0  0  0  0  0  0
   -9.7927   21.8006  -46.6086 C   0  0  0  0  0  0  0  0  0  0  0  0
   -9.0473   20.7317  -45.8284 C   0  0  0  0  0  0  0  0  0  0  0  0
   -7.6796   20.9577  -45.7953 O   0  0  0  0  0  0  0  0  0  0  0  0
   -9.3009   19.4074  -46.4758 C   0  0  0  0  0  0  0  0  0  0  0  0
  -10.7248   19.3403  -47.0182 C   0  0  0  0  0  0  0  0  0  0  0  0
  -13.1806   20.3477  -44.4271 C   0  0  0  0  0  0  0  0  0  0  0  0
  -14.3552   19.9515  -43.8274 C   0  0  0  0  0  0  0  0  0  0  0  0
  -15.2060   19.0475  -44.4082 C   0  0  0  0  0  0  0  0  0  0  0  0
  -16.3964   18.6613  -43.7712 N   0  0  0  0  0  0  0  0  0  0  0  0
  -16.7392   19.1015  -42.4418 C   0  0  0  0  0  0  0  0  0  0  0  0
  -16.2583   18.4087  -41.3626 C   0  0  0  0  0  0  0  0  0  0  0  0
  -16.5806   18.8203  -40.0576 C   0  0  0  0  0  0  0  0  0  0  0  0
  -16.0934   18.0647  -38.9500 N   0  0  0  0  0  0  0  0  0  0  0  0
  -15.9351   16.6782  -39.0098 C   0  0  0  0  0  0  0  0  0  0  0  0
  -16.9217   15.9244  -39.6100 C   0  0  0  0  0  0  0  0  0  0  0  0
  -16.8587   14.5517  -39.6628 C   0  0  0  0  0  0  0  0  0  0  0  0
  -15.7735   13.9171  -39.0957 C   0  0  0  0  0  0  0  0  0  0  0  0
  -14.7840   14.6466  -38.4958 C   0  0  0  0  0  0  0  0  0  0  0  0
  -14.8679   16.0439  -38.4548 C   0  0  0  0  0  0  0  0  0  0  0  0
  -13.5357   16.8754  -37.7478 S   0  0  0  0  0  6  0  0  0  0  0  0
  -13.9210   17.7663  -36.5902 O   0  0  0  0  0  0  0  0  0  0  0  0
  -12.5096   15.8752  -37.2097 O   0  0  0  0  0  0  0  0  0  0  0  0
  -12.7149   17.8958  -38.9256 C   0  0  0  0  0  0  0  0  0  0  0  0
  -13.0201   19.3559  -38.5115 C   0  0  0  0  0  0  0  0  0  0  0  0
  -11.2393   17.7778  -38.9031 C   0  0  0  0  0  0  0  0  0  0  0  0
  -17.3796   19.9203  -39.8915 C   0  0  0  0  0  0  0  0  0  0  0  0
  -17.8655   20.5488  -38.7466 C   0  0  0  0  0  0  0  0  0  0  0  0
  -18.6264   21.6049  -39.2124 C   0  0  0  0  0  0  0  0  0  0  0  0
  -18.6072   21.6215  -40.5504 N   0  0  0  0  0  0  0  0  0  0  0  0
  -17.8596   20.6126  -41.0116 C   0  0  0  0  0  0  0  0  0  0  0  0
  -17.5191   20.1744  -42.2435 N   0  0  0  0  0  0  0  0  0  0  0  0
  1  2  1  0
  2  3  1  0
  3  4  2  0
  4  5  1  0
  5  6  1  0
  6  7  1  0
  7  8  1  0
  8  9  1  0
  9 10  1  0
  9 11  1  0
 11 12  1  0
  5 13  2  0
 13 14  1  0
 14 15  2  0
 15 16  1  0
 16 17  1  0
 17 18  2  0
 18 19  1  0
 19 20  1  0
 20 21  1  0
 21 22  2  0
 22 23  1  0
 23 24  2  0
 24 25  1  0
 25 26  2  0
 26 27  1  0
 27 28  2  0
 27 29  2  0
 27 30  1  0
 30 31  1  0
 30 32  1  0
 19 33  2  0
 33 34  1  0
 34 35  2  0
 35 36  1  0
 36 37  1  0
 37 38  2  0
 15  3  1  0
 38 17  1  0
 12  6  1  0
 26 21  1  0
 37 33  1  0
M  END
$$$$
