
     RDKit          3D

 16 17  0  0  0  0  0  0  0  0999 V2000
  -13.1301   47.2590  -19.9617 C   0  0  0  0  0  0  0  0  0  0  0  0
  -13.9332   45.9880  -19.7942 C   0  0  0  0  0  0  0  0  0  0  0  0
  -15.0543   45.9192  -20.6214 O   0  0  0  0  0  0  0  0  0  0  0  0
  -15.8970   44.8634  -20.7560 C   0  0  0  0  0  0  0  0  0  0  0  0
  -16.7036   44.7153  -21.8535 C   0  0  0  0  0  0  0  0  0  0  0  0
  -17.5652   43.6565  -22.0151 C   0  0  0  0  0  0  0  0  0  0  0  0
  -17.6608   42.6597  -21.0457 C   0  0  0  0  0  0  0  0  0  0  0  0
  -18.4114   41.5899  -21.0208 N   0  0  0  0  0  0  0  0  0  0  0  0
  -18.5099   40.7396  -20.2204 C   0  0  0  0  0  0  0  0  0  0  0  0
  -19.3499   39.2410  -19.8463 S   0  0  0  0  0  6  0  0  0  0  0  0
  -20.3892   39.5393  -18.5156 N   0  0  0  0  0  0  0  0  0  0  0  0
  -20.1519   38.7801  -21.0526 O   0  0  0  0  0  0  0  0  0  0  0  0
  -18.3367   38.1722  -19.5753 O   0  0  0  0  0  0  0  0  0  0  0  0
  -17.2358   41.3882  -18.9522 S   0  0  0  0  0  0  0  0  0  0  0  0
  -16.8387   42.8184  -19.9356 C   0  0  0  0  0  0  0  0  0  0  0  0
  -15.9695   43.8918  -19.7786 C   0  0  0  0  0  0  0  0  0  0  0  0
  1  2  1  0
  2  3  1  0
  3  4  1  0
  4  5  2  0
  5  6  1  0
  6  7  2  0
  7  8  1  0
  8  9  2  0
  9 10  1  0
 10 11  1  0
 10 12  2  0
 10 13  2  0
  9 14  1  0
 14 15  1  0
 15 16  2  0
 16  4  1  0
 15  7  1  0
M  END
$$$$
