
     RDKit          3D

 29 31  0  0  0  0  0  0  0  0999 V2000
  -26.6762   44.1649  -14.7799 C   0  0  0  0  0  0  0  0  0  0  0  0
  -25.4625   44.8521  -14.9986 O   0  0  0  0  0  0  0  0  0  0  0  0
  -24.6516   44.5436  -16.0777 C   0  0  0  0  0  0  0  0  0  0  0  0
  -24.0395   45.5690  -16.7691 C   0  0  0  0  0  0  0  0  0  0  0  0
  -23.2385   45.2368  -17.8375 C   0  0  0  0  0  0  0  0  0  0  0  0
  -23.0797   43.9021  -18.1735 C   0  0  0  0  0  0  0  0  0  0  0  0
  -22.2000   43.6231  -19.3369 C   0  0  0  0  0  0  0  0  0  0  0  0
  -20.8459   44.0781  -19.1042 N   0  0  0  0  0  0  0  0  0  0  0  0
  -19.7794   43.3400  -19.6826 C   0  0  0  0  0  0  0  0  0  0  0  0
  -19.9446   42.1995  -20.3455 N   0  0  0  0  0  0  0  0  0  0  0  0
  -18.9499   41.4790  -20.9068 C   0  0  0  0  0  0  0  0  0  0  0  0
  -19.2162   40.2587  -21.6057 N   0  0  0  0  0  0  0  0  0  0  0  0
  -18.1281   39.5330  -22.1841 C   0  0  0  0  0  0  0  0  0  0  0  0
  -17.0352   39.2381  -21.1742 C   0  0  0  0  0  0  0  0  0  0  0  0
  -16.0045   38.4902  -21.7359 O   0  0  0  0  0  0  0  0  0  0  0  0
  -20.5925   39.8093  -21.6882 C   0  0  0  0  0  0  0  0  0  0  0  0
  -21.1046   39.3616  -20.3310 C   0  0  0  0  0  0  0  0  0  0  0  0
  -22.4524   39.0153  -20.3939 O   0  0  0  0  0  0  0  0  0  0  0  0
  -17.7016   41.9673  -20.7754 N   0  0  0  0  0  0  0  0  0  0  0  0
  -17.4247   43.1180  -20.1208 C   0  0  0  0  0  0  0  0  0  0  0  0
  -18.4711   43.8225  -19.5626 C   0  0  0  0  0  0  0  0  0  0  0  0
  -17.9807   44.9269  -18.9640 N   0  0  0  0  0  0  0  0  0  0  0  0
  -16.6497   44.9328  -19.1329 C   0  0  0  0  0  0  0  0  0  0  0  0
  -16.3192   43.8267  -19.8389 N   0  0  0  0  0  0  0  0  0  0  0  0
  -14.9812   43.4471  -20.2375 C   0  0  0  0  0  0  0  0  0  0  0  0
  -14.8432   43.5903  -21.7185 C   0  0  0  0  0  0  0  0  0  0  0  0
  -13.9864   44.2967  -19.4731 C   0  0  0  0  0  0  0  0  0  0  0  0
  -23.6745   42.8815  -17.5041 C   0  0  0  0  0  0  0  0  0  0  0  0
  -24.4856   43.2204  -16.4217 C   0  0  0  0  0  0  0  0  0  0  0  0
  1  2  1  0
  2  3  1  0
  3  4  2  0
  4  5  1  0
  5  6  2  0
  6  7  1  0
  7  8  1  0
  8  9  1  0
  9 10  2  0
 10 11  1  0
 11 12  1  0
 12 13  1  0
 13 14  1  0
 14 15  1  0
 12 16  1  0
 16 17  1  0
 17 18  1  0
 11 19  2  0
 19 20  1  0
 20 21  2  0
 21 22  1  0
 22 23  2  0
 23 24  1  0
 24 25  1  0
 25 26  1  0
 25 27  1  0
  6 28  1  0
 28 29  2  0
 29  3  1  0
 21  9  1  0
 24 20  1  0
M  END
$$$$
