
     RDKit          3D

 10 10  0  0  0  0  0  0  0  0999 V2000
  -18.1949   40.4767  -20.6929 O   0  0  0  0  0  0  0  0  0  0  0  0
  -19.0705   39.6500  -20.3918 C   0  0  0  0  0  0  0  0  0  0  0  0
  -19.4486   38.6054  -21.3376 C   0  0  0  0  0  0  0  0  0  0  0  0
  -18.5633   37.7824  -21.8475 C   0  0  0  0  0  0  0  0  0  0  0  0
  -18.9618   36.6385  -22.6442 C   0  0  0  0  0  0  0  0  0  0  0  0
  -18.0755   35.5434  -22.6756 C   0  0  0  0  0  0  0  0  0  0  0  0
  -18.4070   34.4496  -23.4088 C   0  0  0  0  0  0  0  0  0  0  0  0
  -19.5932   34.4101  -24.1126 C   0  0  0  0  0  0  0  0  0  0  0  0
  -20.4517   35.4812  -24.0769 C   0  0  0  0  0  0  0  0  0  0  0  0
  -20.1478   36.6076  -23.3435 C   0  0  0  0  0  0  0  0  0  0  0  0
  1  2  2  0
  2  3  1  0
  3  4  2  0
  4  5  1  0
  5  6  2  0
  6  7  1  0
  7  8  2  0
  8  9  1  0
  9 10  2  0
 10  5  1  0
M  END
$$$$
