
     RDKit          3D

  7  6  0  0  0  0  0  0  0  0999 V2000
  -17.6632   15.4163  -29.8725 Cl  0  0  0  0  0  0  0  0  0  0  0  0
  -17.2820   14.1222  -28.6791 N   0  0  0  0  0  0  0  0  0  0  0  0
  -17.6153   15.1347  -29.6247 C   0  0  0  0  0  0  0  0  0  0  0  0
  -18.6686   15.4152  -30.2217 N   0  0  0  0  0  0  0  0  0  0  0  0
  -18.7642   16.4714  -31.1200 C   0  0  0  0  0  0  0  0  0  0  0  0
  -17.4248   16.9860  -31.5583 C   0  0  0  0  0  0  0  0  0  0  0  0
  -16.3974   16.3251  -30.1782 S   0  0  0  0  0  0  0  0  0  0  0  0
  2  3  1  0
  3  4  2  0
  4  5  1  0
  5  6  1  0
  6  7  1  0
  7  3  1  0
M  END
$$$$
