
     RDKit          3D

 16 17  0  0  0  0  0  0  0  0999 V2000
  -26.9471   27.2585  -29.8826 C   0  0  0  0  0  0  0  0  0  0  0  0
  -25.8954   27.4055  -28.9458 O   0  0  0  0  0  0  0  0  0  0  0  0
  -25.3456   26.2379  -28.4311 C   0  0  0  0  0  0  0  0  0  0  0  0
  -25.4864   25.0349  -29.0169 N   0  0  0  0  0  0  0  0  0  0  0  0
  -24.9411   23.9102  -28.4965 C   0  0  0  0  0  0  0  0  0  0  0  0
  -25.1503   22.6255  -29.2147 C   0  0  0  0  0  0  0  0  0  0  0  0
  -24.2339   23.9948  -27.3550 N   0  0  0  0  0  0  0  0  0  0  0  0
  -24.0424   25.1601  -26.7007 C   0  0  0  0  0  0  0  0  0  0  0  0
  -23.1131   25.2373  -25.2112 Cl  0  0  0  0  0  0  0  0  0  0  0  0
  -24.6128   26.2940  -27.2580 C   0  0  0  0  0  0  0  0  0  0  0  0
  -24.4307   27.5292  -26.5973 N   0  0  0  0  0  0  0  0  0  0  0  0
  -23.5437   28.5298  -27.1416 C   0  0  0  0  0  0  0  0  0  0  0  0
  -23.3958   28.7850  -28.3888 N   0  0  0  0  0  0  0  0  0  0  0  0
  -22.4526   29.8252  -28.6575 C   0  0  0  0  0  0  0  0  0  0  0  0
  -21.9614   30.2660  -27.3127 C   0  0  0  0  0  0  0  0  0  0  0  0
  -22.6876   29.4001  -26.4229 N   0  0  0  0  0  0  0  0  0  0  0  0
  1  2  1  0
  2  3  1  0
  3  4  2  0
  4  5  1  0
  5  6  1  0
  5  7  2  0
  7  8  1  0
  8  9  1  0
  8 10  2  0
 10 11  1  0
 11 12  1  0
 12 13  2  0
 13 14  1  0
 14 15  1  0
 15 16  1  0
 10  3  1  0
 16 12  1  0
M  END
$$$$
