
     RDKit          3D

 37 41  0  0  0  0  0  0  0  0999 V2000
  -28.4904   24.1543  -35.9215 C   0  0  0  0  0  0  0  0  0  0  0  0
  -27.5538   24.8647  -36.7773 N   0  0  0  0  0  0  0  0  0  0  0  0
  -27.0388   24.0565  -37.8470 C   0  0  0  0  0  0  0  0  0  0  0  0
  -26.0487   23.0323  -37.3370 C   0  0  0  0  0  0  0  0  0  0  0  0
  -24.9915   23.6152  -36.4864 C   0  0  0  0  0  0  0  0  0  0  0  0
  -23.5640   23.4709  -37.0395 C   0  0  0  0  0  0  0  0  0  0  0  0
  -22.8010   22.7106  -36.3337 O   0  0  0  0  0  0  0  0  0  0  0  0
  -21.7044   22.2152  -35.7961 C   0  0  0  0  0  0  0  0  0  0  0  0
  -20.5508   21.7807  -36.4539 C   0  0  0  0  0  0  0  0  0  0  0  0
  -19.5651   21.3278  -35.6636 N   0  0  0  0  0  0  0  0  0  0  0  0
  -19.4631   21.2129  -34.4230 C   0  0  0  0  0  0  0  0  0  0  0  0
  -18.3967   20.6602  -33.5844 C   0  0  0  0  0  0  0  0  0  0  0  0
  -18.4980   20.6547  -32.2225 C   0  0  0  0  0  0  0  0  0  0  0  0
  -17.5294   20.1788  -31.4133 C   0  0  0  0  0  0  0  0  0  0  0  0
  -16.3822   19.6737  -32.0162 C   0  0  0  0  0  0  0  0  0  0  0  0
  -16.2603   19.6707  -33.3680 C   0  0  0  0  0  0  0  0  0  0  0  0
  -15.0712   18.9373  -33.9668 C   0  0  0  0  0  0  0  0  0  0  0  0
  -15.6959   17.7083  -34.5265 N   0  0  0  0  0  0  0  0  0  0  0  0
  -16.3340   16.8682  -33.8087 N   0  0  0  0  0  0  0  0  0  0  0  0
  -17.0753   15.7973  -34.2383 C   0  0  0  0  0  0  0  0  0  0  0  0
  -17.7418   14.9127  -33.3259 C   0  0  0  0  0  0  0  0  0  0  0  0
  -18.6775   13.9677  -33.8360 C   0  0  0  0  0  0  0  0  0  0  0  0
  -19.3056   13.0734  -32.9902 C   0  0  0  0  0  0  0  0  0  0  0  0
  -19.0537   13.0613  -31.6582 C   0  0  0  0  0  0  0  0  0  0  0  0
  -18.1594   13.9557  -31.1517 C   0  0  0  0  0  0  0  0  0  0  0  0
  -17.8179   13.9381  -29.7106 C   0  0  0  0  0  0  0  0  0  0  0  0
  -17.5814   13.9142  -28.6450 N   0  0  0  0  0  0  0  0  0  0  0  0
  -17.5066   14.8825  -31.9873 C   0  0  0  0  0  0  0  0  0  0  0  0
  -17.0699   15.6827  -35.6315 C   0  0  0  0  0  0  0  0  0  0  0  0
  -16.4141   16.5328  -36.4496 C   0  0  0  0  0  0  0  0  0  0  0  0
  -15.7022   17.5841  -35.8550 C   0  0  0  0  0  0  0  0  0  0  0  0
  -15.0912   18.3815  -36.6047 O   0  0  0  0  0  0  0  0  0  0  0  0
  -17.2465   20.1592  -34.1787 C   0  0  0  0  0  0  0  0  0  0  0  0
  -20.6093   21.6406  -33.7042 N   0  0  0  0  0  0  0  0  0  0  0  0
  -21.6560   22.1081  -34.3721 C   0  0  0  0  0  0  0  0  0  0  0  0
  -25.1774   25.1699  -36.5493 C   0  0  0  0  0  0  0  0  0  0  0  0
  -26.5077   25.4927  -35.9739 C   0  0  0  0  0  0  0  0  0  0  0  0
  1  2  1  0
  2  3  1  0
  3  4  1  0
  4  5  1  0
  5  6  1  0
  6  7  1  0
  7  8  1  0
  8  9  2  0
  9 10  1  0
 10 11  2  0
 11 12  1  0
 12 13  2  0
 13 14  1  0
 14 15  2  0
 15 16  1  0
 16 17  1  0
 17 18  1  0
 18 19  1  0
 19 20  2  0
 20 21  1  0
 21 22  2  0
 22 23  1  0
 23 24  2  0
 24 25  1  0
 25 26  1  0
 26 27  3  0
 25 28  2  0
 20 29  1  0
 29 30  2  0
 30 31  1  0
 31 32  2  0
 16 33  2  0
 11 34  1  0
 34 35  2  0
  5 36  1  0
 36 37  1  0
 37  2  1  0
 35  8  1  0
 33 12  1  0
 31 18  1  0
 28 21  1  0
M  END
$$$$
