
     RDKit          3D

 26 32  0  0  0  0  0  0  0  0999 V2000
  -16.4953   48.4437  -21.0482 C   0  0  0  0  0  0  0  0  0  0  0  0
  -15.6882   47.1697  -21.0171 C   0  0  0  0  0  0  0  0  0  0  0  0
  -14.6584   47.2579  -19.9476 C   0  0  0  0  0  0  0  0  0  0  0  0
  -16.5662   45.9555  -20.8653 C   0  0  2  0  0  0  0  0  0  0  0  0
  -16.6694   45.3082  -22.1994 O   0  0  0  0  0  0  0  0  0  0  0  0
  -17.7854   45.8235  -21.4499 C   0  0  1  0  0  0  0  0  0  0  0  0
  -18.7163   44.7597  -20.9848 C   0  0  2  0  0  0  0  0  0  0  0  0
  -18.8827   44.6727  -19.5119 O   0  0  0  0  0  0  0  0  0  0  0  0
  -18.2375   43.6877  -20.2048 C   0  0  1  0  0  0  0  0  0  0  0  0
  -18.7892   42.2956  -20.3026 C   0  0  1  0  0  0  0  0  0  0  0  0
  -18.3107   41.4103  -19.1731 C   0  0  0  0  0  0  0  0  0  0  0  0
  -20.3013   42.3171  -20.2376 C   0  0  0  0  0  0  0  0  0  0  0  0
  -20.8878   40.9541  -20.3861 C   0  0  0  0  0  0  0  0  0  0  0  0
  -20.0003   39.9879  -21.0916 C   0  0  0  0  0  0  0  0  0  0  0  0
  -18.8854   40.3164  -21.6704 C   0  0  0  0  0  0  0  0  0  0  0  0
  -18.2592   39.1194  -22.2710 C   0  0  0  0  0  0  0  0  0  0  0  0
  -19.1260   38.0666  -21.9799 O   0  0  0  0  0  0  0  0  0  0  0  0
  -20.1980   38.5688  -21.2603 C   0  0  0  0  0  0  0  0  0  0  0  0
  -21.1518   37.8324  -20.8560 O   0  0  0  0  0  0  0  0  0  0  0  0
  -18.4158   41.7444  -21.6567 C   0  0  2  0  0  0  0  0  0  0  0  0
  -16.9711   41.8166  -21.9665 C   0  0  0  0  0  0  0  0  0  0  0  0
  -16.1966   42.8424  -21.2273 C   0  0  2  0  0  0  0  0  0  0  0  0
  -16.0967   42.4496  -19.7932 O   0  0  0  0  0  0  0  0  0  0  0  0
  -16.7326   43.5899  -20.2015 C   0  0  2  0  0  0  0  0  0  0  0  0
  -16.1677   44.9485  -19.8446 C   0  0  2  0  0  0  0  0  0  0  0  0
  -16.5430   45.3115  -18.5545 O   0  0  0  0  0  0  0  0  0  0  0  0
  1  2  1  0
  2  3  1  0
  4  2  1  6
  4  5  1  0
  6  5  1  6
  6  7  1  0
  7  8  1  1
  9  8  1  1
  9 10  1  0
 10 11  1  1
 10 12  1  0
 12 13  1  0
 13 14  1  0
 14 15  2  0
 15 16  1  0
 16 17  1  0
 17 18  1  0
 18 19  2  0
 15 20  1  0
 20 21  1  1
 22 21  1  6
 22 23  1  0
 24 23  1  1
 24 25  1  0
 25 26  1  1
  6  4  1  0
  9  7  1  0
 20 10  1  0
 24 22  1  0
 25  4  1  0
 24  9  1  0
 18 14  1  0
M  END
$$$$
