
     RDKit          3D

 31 35  0  0  0  0  0  0  0  0999 V2000
  -21.7026   36.3168  -21.4415 C   0  0  0  0  0  0  0  0  0  0  0  0
  -21.8212   37.7877  -21.7803 C   0  0  0  0  0  0  0  0  0  0  0  0
  -23.2009   38.0200  -22.3376 C   0  0  0  0  0  0  0  0  0  0  0  0
  -21.5811   38.5145  -20.6158 O   0  0  0  0  0  0  0  0  0  0  0  0
  -20.2164   38.4273  -20.4885 C   0  0  2  0  0  0  0  0  0  0  0  0
  -19.6418   39.7276  -19.8674 C   0  0  0  0  0  0  0  0  0  0  0  0
  -20.0985   40.6650  -20.9075 C   0  0  1  0  0  0  0  0  0  0  0  0
  -19.6415   42.0513  -20.9311 C   0  0  2  0  0  0  0  0  0  0  0  0
  -19.6652   42.7612  -19.6047 C   0  0  0  0  0  0  0  0  0  0  0  0
  -18.9863   44.0868  -19.8751 C   0  0  2  0  0  0  0  0  0  0  0  0
  -18.9917   44.7938  -18.7174 F   0  0  0  0  0  0  0  0  0  0  0  0
  -19.6723   44.8205  -20.9951 C   0  0  0  0  0  0  0  0  0  0  0  0
  -19.9228   46.0889  -20.7530 C   0  0  0  0  0  0  0  0  0  0  0  0
  -20.5814   46.9164  -21.7482 C   0  0  0  0  0  0  0  0  0  0  0  0
  -21.0244   48.0363  -21.4642 O   0  0  0  0  0  0  0  0  0  0  0  0
  -20.7071   46.3885  -23.0984 C   0  0  0  0  0  0  0  0  0  0  0  0
  -20.9214   44.8945  -23.1493 C   0  0  0  0  0  0  0  0  0  0  0  0
  -20.0168   44.1057  -22.2631 C   0  0  1  0  0  0  0  0  0  0  0  0
  -18.6920   43.9964  -23.0177 C   0  0  0  0  0  0  0  0  0  0  0  0
  -20.6058   42.7930  -21.8719 C   0  0  1  0  0  0  0  0  0  0  0  0
  -21.1462   41.8839  -22.8728 C   0  0  1  0  0  0  0  0  0  0  0  0
  -21.5072   42.5016  -24.0900 O   0  0  0  0  0  0  0  0  0  0  0  0
  -20.3958   40.6568  -23.2665 C   0  0  0  0  0  0  0  0  0  0  0  0
  -19.5402   40.0340  -22.1899 C   0  0  1  0  0  0  0  0  0  0  0  0
  -18.1254   40.3649  -22.4733 C   0  0  0  0  0  0  0  0  0  0  0  0
  -19.7935   38.5868  -21.9563 C   0  0  1  0  0  0  0  0  0  0  0  0
  -18.6710   37.6869  -22.2497 C   0  0  0  0  0  0  0  0  0  0  0  0
  -17.5873   37.9500  -21.6884 O   0  0  0  0  0  0  0  0  0  0  0  0
  -18.6628   36.5167  -23.1312 C   0  0  0  0  0  0  0  0  0  0  0  0
  -17.4693   35.7761  -22.9626 O   0  0  0  0  0  0  0  0  0  0  0  0
  -20.8995   38.1861  -22.7235 O   0  0  0  0  0  0  0  0  0  0  0  0
  1  2  1  0
  2  3  1  0
  2  4  1  0
  4  5  1  0
  5  6  1  1
  7  6  1  1
  7  8  1  0
  8  9  1  1
  9 10  1  0
 10 11  1  1
 10 12  1  0
 12 13  2  0
 13 14  1  0
 14 15  2  0
 14 16  1  0
 16 17  1  0
 17 18  1  0
 18 19  1  6
 18 20  1  0
 20 21  1  6
 21 22  1  6
 21 23  1  0
 23 24  1  0
 24 25  1  6
 24 26  1  0
 26 27  1  6
 27 28  2  0
 27 29  1  0
 29 30  1  0
 26 31  1  0
 31  2  1  0
 26  5  1  0
 24  7  1  0
 20  8  1  0
 18 12  1  0
M  END
$$$$
