
     RDKit          3D

 14 13  0  0  0  0  0  0  0  0999 V2000
  -15.9469   22.4623  -46.9109 N   0  0  0  0  0  0  0  0  0  0  0  0
  -15.5628   21.7446  -45.7120 C   0  0  0  0  0  0  0  0  0  0  0  0
  -16.8514   21.0374  -45.2482 C   0  0  0  0  0  0  0  0  0  0  0  0
  -16.5544   20.7081  -43.7686 C   0  0  0  0  0  0  0  0  0  0  0  0
  -17.7188   20.0431  -43.2884 N   0  0  0  0  0  0  0  0  0  0  0  0
  -17.7825   19.8148  -41.8886 C   0  0  0  0  0  0  0  0  0  0  0  0
  -16.5012   19.1033  -41.4406 C   0  0  0  0  0  0  0  0  0  0  0  0
  -16.7471   18.5377  -40.0567 C   0  0  0  0  0  0  0  0  0  0  0  0
  -16.2239   17.1402  -39.8964 C   0  0  0  0  0  0  0  0  0  0  0  0
  -15.3015   17.0233  -38.8020 N   0  0  0  0  0  0  0  0  0  0  0  0
  -14.1121   16.3032  -39.1527 C   0  0  0  0  0  0  0  0  0  0  0  0
  -12.9871   17.1873  -39.5835 C   0  0  0  0  0  0  0  0  0  0  0  0
  -11.7495   16.3162  -39.8551 C   0  0  0  0  0  0  0  0  0  0  0  0
  -10.5998   17.1150  -40.2011 N   0  0  0  0  0  0  0  0  0  0  0  0
  1  2  1  0
  2  3  1  0
  3  4  1  0
  4  5  1  0
  5  6  1  0
  6  7  1  0
  7  8  1  0
  8  9  1  0
  9 10  1  0
 10 11  1  0
 11 12  1  0
 12 13  1  0
 13 14  1  0
M  END
$$$$
