
     RDKit          3D

 33 36  0  0  0  0  0  0  0  0999 V2000
    2.9664   15.9820  -24.1945 C   0  0  0  0  0  0  0  0  0  0  0  0
    1.7491   16.6467  -23.9822 O   0  0  0  0  0  0  0  0  0  0  0  0
    1.3086   16.8410  -22.6662 C   0  0  0  0  0  0  0  0  0  0  0  0
   -0.0308   16.9357  -22.4002 C   0  0  0  0  0  0  0  0  0  0  0  0
   -0.4307   17.1264  -21.1008 C   0  0  0  0  0  0  0  0  0  0  0  0
   -1.7973   17.2200  -20.8424 O   0  0  0  0  0  0  0  0  0  0  0  0
   -2.6531   16.1155  -20.8337 C   0  0  0  0  0  0  0  0  0  0  0  0
    0.5098   17.2204  -20.0944 C   0  0  0  0  0  0  0  0  0  0  0  0
    1.8847   17.1293  -20.3318 C   0  0  0  0  0  0  0  0  0  0  0  0
    2.8111   17.1186  -19.2789 N   0  0  0  0  0  0  0  0  0  0  0  0
    2.9957   15.8498  -18.5597 C   0  0  0  0  0  0  0  0  0  0  0  0
    2.1442   15.7770  -17.3416 C   0  0  0  0  0  0  0  0  0  0  0  0
    1.8129   14.4649  -16.9653 N   0  0  0  0  0  0  0  0  0  0  0  0
    2.2957   13.9086  -15.7673 C   0  0  0  0  0  0  0  0  0  0  0  0
    2.4940   14.8969  -14.6370 C   0  0  0  0  0  0  0  0  0  0  0  0
    3.4849   12.9943  -15.8702 C   0  0  0  0  0  0  0  0  0  0  0  0
    3.5731   18.2333  -18.9006 C   0  0  0  0  0  0  0  0  0  0  0  0
    4.8040   18.1103  -18.2705 C   0  0  0  0  0  0  0  0  0  0  0  0
    5.5271   19.1918  -17.7757 C   0  0  0  0  0  0  0  0  0  0  0  0
    5.0158   20.4613  -17.9064 C   0  0  0  0  0  0  0  0  0  0  0  0
    5.7227   21.4935  -17.4303 N   0  0  0  0  0  0  0  0  0  0  0  0
    5.2131   22.7580  -17.5646 C   0  0  0  0  0  0  0  0  0  0  0  0
    4.0021   22.9564  -18.1759 C   0  0  0  0  0  0  0  0  0  0  0  0
    3.4825   24.3159  -18.3138 C   0  0  0  0  0  0  0  0  0  0  0  0
    4.1040   25.4829  -17.8878 C   0  0  0  0  0  0  0  0  0  0  0  0
    3.2854   26.4997  -18.1998 N   0  0  0  0  0  0  0  0  0  0  0  0
    2.1897   26.0707  -18.7922 N   0  0  0  0  0  0  0  0  0  0  0  0
    1.0679   26.8959  -19.2724 C   0  0  0  0  0  0  0  0  0  0  0  0
    2.2976   24.7343  -18.8686 C   0  0  0  0  0  0  0  0  0  0  0  0
    3.3264   21.8935  -18.6386 N   0  0  0  0  0  0  0  0  0  0  0  0
    3.7990   20.6318  -18.5232 C   0  0  0  0  0  0  0  0  0  0  0  0
    3.0920   19.5458  -19.0080 C   0  0  0  0  0  0  0  0  0  0  0  0
    2.2450   16.9369  -21.6350 C   0  0  0  0  0  0  0  0  0  0  0  0
  1  2  1  0
  2  3  1  0
  3  4  2  0
  4  5  1  0
  5  6  1  0
  6  7  1  0
  5  8  2  0
  8  9  1  0
  9 10  1  0
 10 11  1  0
 11 12  1  0
 12 13  1  0
 13 14  1  0
 14 15  1  0
 14 16  1  0
 10 17  1  0
 17 18  2  0
 18 19  1  0
 19 20  2  0
 20 21  1  0
 21 22  2  0
 22 23  1  0
 23 24  1  0
 24 25  1  0
 25 26  2  0
 26 27  1  0
 27 28  1  0
 27 29  1  0
 23 30  2  0
 30 31  1  0
 31 32  2  0
  9 33  2  0
 33  3  1  0
 32 17  1  0
 31 20  1  0
 29 24  2  0
M  END
$$$$
