
     RDKit          3D

 20 20  0  0  0  0  0  0  0  0999 V2000
  -15.8733   13.2998  -27.0778 C   0  0  0  0  0  0  0  0  0  0  0  0
  -16.7123   12.9460  -28.3098 C   0  0  0  0  0  0  0  0  0  0  0  0
  -16.3538   13.7891  -29.4523 N   0  0  0  0  0  0  0  0  0  0  0  0
  -15.0730   13.5957  -30.0295 C   0  0  0  0  0  0  0  0  0  0  0  0
  -14.6171   14.3459  -31.0834 C   0  0  0  0  0  0  0  0  0  0  0  0
  -13.3452   14.0749  -31.5902 C   0  0  0  0  0  0  0  0  0  0  0  0
  -12.5260   13.1042  -31.0980 C   0  0  0  0  0  0  0  0  0  0  0  0
  -12.9996   12.3639  -30.0450 C   0  0  0  0  0  0  0  0  0  0  0  0
  -14.2466   12.5884  -29.5058 C   0  0  0  0  0  0  0  0  0  0  0  0
  -17.2916   14.7287  -29.9385 C   0  0  0  0  0  0  0  0  0  0  0  0
  -18.6321   14.6326  -29.6420 C   0  0  0  0  0  0  0  0  0  0  0  0
  -19.5401   15.6196  -30.0969 C   0  0  0  0  0  0  0  0  0  0  0  0
  -20.7693   15.4990  -29.8067 N   0  0  0  0  0  0  0  0  0  0  0  0
  -21.8159   16.3553  -30.1565 C   0  0  0  0  0  0  0  0  0  0  0  0
  -19.1447   16.6659  -30.8193 N   0  0  0  0  0  0  0  0  0  0  0  0
  -20.0777   17.6332  -31.2583 C   0  0  0  0  0  0  0  0  0  0  0  0
  -17.8033   16.7168  -31.0885 C   0  0  0  0  0  0  0  0  0  0  0  0
  -17.3223   17.8733  -31.8963 C   0  0  0  0  0  0  0  0  0  0  0  0
  -16.9441   15.7889  -30.6617 N   0  0  0  0  0  0  0  0  0  0  0  0
  -16.5441   14.6288  -29.9541 Cl  0  0  0  0  0  0  0  0  0  0  0  0
  1  2  1  0
  2  3  1  0
  3  4  1  0
  4  5  2  0
  5  6  1  0
  6  7  2  0
  7  8  1  0
  8  9  2  0
  3 10  1  0
 10 11  2  0
 11 12  1  0
 12 13  2  0
 13 14  1  0
 12 15  1  0
 15 16  1  0
 15 17  1  0
 17 18  1  0
 17 19  2  0
  9  4  1  0
 19 10  1  0
M  END
$$$$
