
     RDKit          3D

 28 29  0  0  0  0  0  0  0  0999 V2000
  -32.2313   15.5441  -21.7864 C   0  0  0  0  0  0  0  0  0  0  0  0
  -31.0695   14.9110  -22.5883 C   0  0  0  0  0  0  0  0  0  0  0  0
  -31.7655   13.9118  -23.5098 C   0  0  0  0  0  0  0  0  0  0  0  0
  -30.4053   15.9866  -23.3643 C   0  0  0  0  0  0  0  0  0  0  0  0
  -29.1262   15.6627  -24.0439 C   0  0  2  0  0  0  0  0  0  0  0  0
  -28.2667   14.7235  -23.3914 N   0  0  0  0  0  0  0  0  0  0  0  0
  -26.9694   14.4301  -23.8811 C   0  0  0  0  0  0  0  0  0  0  0  0
  -26.5736   14.9109  -24.9981 O   0  0  0  0  0  0  0  0  0  0  0  0
  -26.0555   13.5744  -23.1253 C   0  0  2  0  0  0  0  0  0  0  0  0
  -25.1673   12.7946  -24.0541 C   0  0  0  0  0  0  0  0  0  0  0  0
  -24.0878   12.0805  -23.3710 C   0  0  0  0  0  0  0  0  0  0  0  0
  -24.1700   10.7578  -22.9899 C   0  0  0  0  0  0  0  0  0  0  0  0
  -23.0996   10.1628  -22.3478 C   0  0  0  0  0  0  0  0  0  0  0  0
  -21.9453   10.8549  -22.0748 C   0  0  0  0  0  0  0  0  0  0  0  0
  -21.8493   12.1855  -22.4525 C   0  0  0  0  0  0  0  0  0  0  0  0
  -22.9199   12.7551  -23.0867 C   0  0  0  0  0  0  0  0  0  0  0  0
  -26.7361   12.7611  -22.1633 N   0  0  0  0  0  0  0  0  0  0  0  0
  -26.6272   12.9329  -20.7553 C   0  0  0  0  0  0  0  0  0  0  0  0
  -25.8721   13.8327  -20.3480 O   0  0  0  0  0  0  0  0  0  0  0  0
  -27.3591   12.1028  -19.8014 C   0  0  0  0  0  0  0  0  0  0  0  0
  -28.3246   11.2286  -20.2529 C   0  0  0  0  0  0  0  0  0  0  0  0
  -29.0179   10.4494  -19.4045 N   0  0  0  0  0  0  0  0  0  0  0  0
  -28.8043   10.4841  -18.0767 C   0  0  0  0  0  0  0  0  0  0  0  0
  -27.8404   11.3553  -17.6146 C   0  0  0  0  0  0  0  0  0  0  0  0
  -27.1414   12.1425  -18.4816 N   0  0  0  0  0  0  0  0  0  0  0  0
  -28.2948   16.9927  -24.3756 B   0  0  0  0  0  0  0  0  0  0  0  0
  -28.9370   18.0375  -25.1652 O   0  0  0  0  0  0  0  0  0  0  0  0
  -26.8476   16.8357  -24.4826 O   0  0  0  0  0  0  0  0  0  0  0  0
  1  2  1  0
  2  3  1  0
  2  4  1  0
  5  4  1  1
  5  6  1  0
  6  7  1  0
  7  8  2  0
  7  9  1  0
  9 10  1  6
 10 11  1  0
 11 12  2  0
 12 13  1  0
 13 14  2  0
 14 15  1  0
 15 16  2  0
  9 17  1  0
 17 18  1  0
 18 19  2  0
 18 20  1  0
 20 21  2  0
 21 22  1  0
 22 23  2  0
 23 24  1  0
 24 25  2  0
  5 26  1  0
 26 27  1  0
 26 28  1  0
 16 11  1  0
 25 20  1  0
M  END
$$$$
