
     RDKit          3D

 30 32  0  0  0  0  0  0  0  0999 V2000
  -21.2387   -2.4704  -34.0881 C   0  0  0  0  0  0  0  0  0  0  0  0
  -21.5026   -1.0022  -34.1065 C   0  0  0  0  0  0  0  0  0  0  0  0
  -22.0566   -0.5050  -32.8736 N   0  0  0  0  0  0  0  0  0  0  0  0
  -23.4754   -0.4331  -32.6044 C   0  0  0  0  0  0  0  0  0  0  0  0
  -24.0817    0.8798  -33.0296 C   0  0  0  0  0  0  0  0  0  0  0  0
  -21.1503   -0.0628  -31.8719 C   0  0  0  0  0  0  0  0  0  0  0  0
  -21.5738    0.3899  -30.7554 O   0  0  0  0  0  0  0  0  0  0  0  0
  -19.7255   -0.0955  -32.0462 C   0  0  0  0  0  0  0  0  0  0  0  0
  -19.0201   -1.2541  -31.8217 C   0  0  0  0  0  0  0  0  0  0  0  0
  -17.6703   -1.3480  -31.9660 C   0  0  0  0  0  0  0  0  0  0  0  0
  -16.9474   -0.2187  -32.3621 C   0  0  0  0  0  0  0  0  0  0  0  0
  -15.5461   -0.3508  -32.6906 C   0  0  0  0  0  0  0  0  0  0  0  0
  -15.2214   -1.3985  -33.4558 C   0  0  0  0  0  0  0  0  0  0  0  0
  -13.8579   -1.7202  -33.9064 C   0  0  0  0  0  0  0  0  0  0  0  0
  -13.8540   -1.7178  -35.4201 C   0  0  0  0  0  0  0  0  0  0  0  0
  -12.6389   -2.3946  -35.9880 C   0  0  0  0  0  0  0  0  0  0  0  0
  -12.5350   -3.7272  -35.4596 N   0  0  0  0  0  0  0  0  0  0  0  0
  -12.2680   -3.6499  -34.0447 C   0  0  0  0  0  0  0  0  0  0  0  0
  -13.4860   -3.0781  -33.3518 C   0  0  0  0  0  0  0  0  0  0  0  0
  -12.9102   -0.7990  -33.4756 O   0  0  0  0  0  0  0  0  0  0  0  0
  -13.1463    0.2783  -32.6585 C   0  0  0  0  0  0  0  0  0  0  0  0
  -12.1382    1.1064  -32.2204 C   0  0  0  0  0  0  0  0  0  0  0  0
  -12.3516    2.1770  -31.3878 C   0  0  0  0  0  0  0  0  0  0  0  0
  -13.6308    2.4232  -30.9770 C   0  0  0  0  0  0  0  0  0  0  0  0
  -14.6642    1.5885  -31.4189 C   0  0  0  0  0  0  0  0  0  0  0  0
  -15.9548    1.8609  -30.9598 O   0  0  0  0  0  0  0  0  0  0  0  0
  -14.4758    0.5191  -32.2585 C   0  0  0  0  0  0  0  0  0  0  0  0
  -17.6467    0.9399  -32.5908 C   0  0  0  0  0  0  0  0  0  0  0  0
  -19.0394    1.0180  -32.4353 C   0  0  0  0  0  0  0  0  0  0  0  0
  -17.6797   -0.6635  -33.0752 Cl  0  0  0  0  0  0  0  0  0  0  0  0
  1  2  1  0
  2  3  1  0
  3  4  1  0
  4  5  1  0
  3  6  1  0
  6  7  2  0
  6  8  1  0
  8  9  2  0
  9 10  1  0
 10 11  2  0
 11 12  1  0
 12 13  2  0
 13 14  1  0
 14 15  1  0
 15 16  1  0
 16 17  1  0
 17 18  1  0
 18 19  1  0
 14 20  1  0
 20 21  1  0
 21 22  2  0
 22 23  1  0
 23 24  2  0
 24 25  1  0
 25 26  1  0
 25 27  2  0
 11 28  1  0
 28 29  2  0
 29  8  1  0
 27 12  1  0
 19 14  1  0
 27 21  1  0
M  END
$$$$
