
     RDKit          3D

 28 31  0  0  0  0  0  0  0  0999 V2000
  -20.4032   49.4429  -19.0636 C   0  0  0  0  0  0  0  0  0  0  0  0
  -20.6533   48.6654  -20.2186 O   0  0  0  0  0  0  0  0  0  0  0  0
  -20.5186   47.2926  -20.2256 C   0  0  0  0  0  0  0  0  0  0  0  0
  -20.3279   46.7258  -19.1215 O   0  0  0  0  0  0  0  0  0  0  0  0
  -20.6039   46.5804  -21.5005 C   0  0  0  0  0  0  0  0  0  0  0  0
  -20.1151   45.1619  -21.4315 C   0  0  2  0  0  0  0  0  0  0  0  0
  -18.7378   45.0580  -21.0722 N   0  0  0  0  0  0  0  0  0  0  0  0
  -17.9604   44.0088  -20.9272 C   0  0  0  0  0  0  0  0  0  0  0  0
  -16.5863   44.1844  -20.5622 C   0  0  0  0  0  0  0  0  0  0  0  0
  -16.1479   45.3631  -19.9746 C   0  0  0  0  0  0  0  0  0  0  0  0
  -14.8129   45.6324  -19.7772 C   0  0  0  0  0  0  0  0  0  0  0  0
  -13.8329   44.7241  -20.1625 C   0  0  0  0  0  0  0  0  0  0  0  0
  -12.1476   45.0901  -19.8994 Cl  0  0  0  0  0  0  0  0  0  0  0  0
  -14.2676   43.5627  -20.7428 C   0  0  0  0  0  0  0  0  0  0  0  0
  -15.6167   43.3005  -20.9386 C   0  0  0  0  0  0  0  0  0  0  0  0
  -18.4244   42.5956  -21.0349 C   0  0  0  0  0  0  0  0  0  0  0  0
  -19.3446   42.2418  -22.0820 C   0  0  0  0  0  0  0  0  0  0  0  0
  -19.5428   40.5682  -21.9476 S   0  0  0  0  0  0  0  0  0  0  0  0
  -18.4827   40.3062  -20.5715 C   0  0  0  0  0  0  0  0  0  0  0  0
  -18.1760   39.0056  -19.8952 C   0  0  0  0  0  0  0  0  0  0  0  0
  -18.0215   41.5783  -20.2905 C   0  0  0  0  0  0  0  0  0  0  0  0
  -17.1785   41.7523  -19.0287 C   0  0  0  0  0  0  0  0  0  0  0  0
  -20.0316   43.1660  -22.9765 N   0  0  0  0  0  0  0  0  0  0  0  0
  -20.4212   42.7880  -24.2127 C   0  0  0  0  0  0  0  0  0  0  0  0
  -20.2013   41.4205  -24.7628 C   0  0  0  0  0  0  0  0  0  0  0  0
  -21.0034   43.8811  -24.7143 N   0  0  0  0  0  0  0  0  0  0  0  0
  -20.9734   44.8873  -23.8229 N   0  0  0  0  0  0  0  0  0  0  0  0
  -20.3675   44.4517  -22.7275 C   0  0  0  0  0  0  0  0  0  0  0  0
  1  2  1  0
  2  3  1  0
  3  4  2  0
  3  5  1  0
  6  5  1  6
  6  7  1  0
  7  8  2  0
  8  9  1  0
  9 10  2  0
 10 11  1  0
 11 12  2  0
 12 13  1  0
 12 14  1  0
 14 15  2  0
  8 16  1  0
 16 17  2  0
 17 18  1  0
 18 19  1  0
 19 20  1  0
 19 21  2  0
 21 22  1  0
 17 23  1  0
 23 24  1  0
 24 25  1  0
 24 26  2  0
 26 27  1  0
 27 28  2  0
 28  6  1  0
 15  9  1  0
 21 16  1  0
 28 23  1  0
M  END
$$$$
