
     RDKit          3D

 35 36  0  0  0  0  0  0  0  0999 V2000
  -25.3662   22.5214  -35.9373 C   0  0  0  0  0  0  0  0  0  0  0  0
  -24.6318   23.1918  -37.0102 N   0  0  0  0  0  0  0  0  0  0  0  0
  -25.2114   24.3891  -37.5558 C   0  0  0  0  0  0  0  0  0  0  0  0
  -23.4240   22.6122  -37.4378 C   0  0  0  0  0  0  0  0  0  0  0  0
  -23.0330   21.5362  -36.9179 O   0  0  0  0  0  0  0  0  0  0  0  0
  -22.5590   23.2457  -38.5142 C   0  0  0  0  0  0  0  0  0  0  0  0
  -21.2546   22.5259  -38.4288 C   0  0  0  0  0  0  0  0  0  0  0  0
  -19.8966   22.8177  -39.4221 S   0  0  0  0  0  0  0  0  0  0  0  0
  -19.8517   22.5164  -41.1547 C   0  0  0  0  0  0  0  0  0  0  0  0
  -19.7161   23.9727  -42.1563 S   0  0  0  0  0  0  0  0  0  0  0  0
  -20.8924   24.2956  -43.4237 C   0  0  0  0  0  0  0  0  0  0  0  0
  -22.2849   24.6476  -43.0313 C   0  0  0  0  0  0  0  0  0  0  0  0
  -23.1533   24.9379  -44.2157 C   0  0  0  0  0  0  0  0  0  0  0  0
  -22.6487   24.8754  -45.3620 O   0  0  0  0  0  0  0  0  0  0  0  0
  -24.4854   25.2675  -44.1015 O   0  0  0  0  0  1  0  0  0  0  0  0
  -18.8108   21.4820  -41.5047 C   0  0  0  0  0  0  0  0  0  0  0  0
  -18.2116   21.5868  -42.7505 C   0  0  0  0  0  0  0  0  0  0  0  0
  -17.1839   20.6953  -43.0930 C   0  0  0  0  0  0  0  0  0  0  0  0
  -16.8464   19.7647  -42.1296 C   0  0  0  0  0  0  0  0  0  0  0  0
  -17.4424   19.6607  -40.8831 C   0  0  0  0  0  0  0  0  0  0  0  0
  -16.8848   18.7600  -39.9274 C   0  0  0  0  0  0  0  0  0  0  0  0
  -17.4481   18.4821  -38.7571 C   0  0  0  0  0  0  0  0  0  0  0  0
  -16.7897   17.5514  -37.8319 C   0  0  0  0  0  0  0  0  0  0  0  0
  -17.3275   17.1516  -36.6776 C   0  0  0  0  0  0  0  0  0  0  0  0
  -16.6490   16.3885  -35.7318 C   0  0  0  0  0  0  0  0  0  0  0  0
  -15.3389   16.0359  -36.0270 C   0  0  0  0  0  0  0  0  0  0  0  0
  -14.5462   15.3176  -35.1464 C   0  0  0  0  0  0  0  0  0  0  0  0
  -13.2174   14.9896  -35.4055 C   0  0  0  0  0  0  0  0  0  0  0  0
  -12.6862   15.4140  -36.6156 C   0  0  0  0  0  0  0  0  0  0  0  0
  -11.0015   15.0508  -36.9971 Cl  0  0  0  0  0  0  0  0  0  0  0  0
  -13.4690   16.1289  -37.4935 C   0  0  0  0  0  0  0  0  0  0  0  0
  -14.8037   16.4609  -37.2341 C   0  0  0  0  0  0  0  0  0  0  0  0
  -15.5024   17.1943  -38.1113 N   0  0  0  0  0  0  0  0  0  0  0  0
  -18.4629   20.5612  -40.5774 C   0  0  0  0  0  0  0  0  0  0  0  0
  -19.4271   20.8236  -39.1640 Na  0  0  0  0  0 15  0  0  0  0  0  0
  1  2  1  0
  2  3  1  0
  2  4  1  0
  4  5  2  0
  4  6  1  0
  6  7  1  0
  7  8  1  0
  8  9  1  0
  9 10  1  0
 10 11  1  0
 11 12  1  0
 12 13  1  0
 13 14  2  0
 13 15  1  0
  9 16  1  0
 16 17  2  0
 17 18  1  0
 18 19  2  0
 19 20  1  0
 20 21  1  0
 21 22  2  0
 22 23  1  0
 23 24  2  0
 24 25  1  0
 25 26  2  0
 26 27  1  0
 27 28  2  0
 28 29  1  0
 29 30  1  0
 29 31  2  0
 31 32  1  0
 32 33  2  0
 20 34  2  0
 34 16  1  0
 33 23  1  0
 32 26  1  0
M  CHG  2  15  -1  35   1
M  END
$$$$
