
     RDKit          3D

 29 32  0  0  0  0  0  0  0  0999 V2000
  -16.8620   39.5759  -23.2906 C   0  0  0  0  0  0  0  0  0  0  0  0
  -17.7102   38.4596  -22.9420 N   0  0  0  0  0  0  0  0  0  0  0  0
  -18.6360   38.5713  -21.8736 C   0  0  0  0  0  0  0  0  0  0  0  0
  -18.7627   39.6922  -21.1479 N   0  0  0  0  0  0  0  0  0  0  0  0
  -19.6548   39.7938  -20.1167 C   0  0  0  0  0  0  0  0  0  0  0  0
  -19.7731   41.0001  -19.3985 N   0  0  0  0  0  0  0  0  0  0  0  0
  -18.9657   42.1245  -19.5961 C   0  0  0  0  0  0  0  0  0  0  0  0
  -17.6875   42.1141  -20.0750 C   0  0  0  0  0  0  0  0  0  0  0  0
  -16.9775   43.3017  -20.2587 C   0  0  0  0  0  0  0  0  0  0  0  0
  -17.4930   44.5300  -19.9794 C   0  0  0  0  0  0  0  0  0  0  0  0
  -16.8033   45.7988  -20.1825 C   0  0  0  0  0  0  0  0  0  0  0  0
  -17.1399   46.4979  -21.1971 O   0  0  0  0  0  0  0  0  0  0  0  0
  -15.7965   46.3095  -19.3452 N   0  0  0  0  0  0  0  0  0  0  0  0
  -15.2277   47.6127  -19.6343 C   0  0  0  0  0  0  0  0  0  0  0  0
  -14.3199   47.9069  -18.4262 C   0  0  0  0  0  0  0  0  0  0  0  0
  -13.3713   46.8924  -18.4152 O   0  0  0  0  0  0  0  0  0  0  0  0
  -13.8873   45.6922  -17.9349 C   0  0  0  0  0  0  0  0  0  0  0  0
  -15.3539   45.5155  -18.2155 C   0  0  0  0  0  0  0  0  0  0  0  0
  -18.8125   44.5240  -19.4850 C   0  0  0  0  0  0  0  0  0  0  0  0
  -19.5300   43.3775  -19.2969 C   0  0  0  0  0  0  0  0  0  0  0  0
  -20.8103   43.4033  -18.8163 O   0  0  0  0  0  0  0  0  0  0  0  0
  -21.5005   44.5614  -18.4941 C   0  0  0  0  0  0  0  0  0  0  0  0
  -20.4109   38.7373  -19.8400 N   0  0  0  0  0  0  0  0  0  0  0  0
  -20.3670   37.5727  -20.4966 C   0  0  0  0  0  0  0  0  0  0  0  0
  -20.9916   36.4069  -20.4186 N   0  0  0  0  0  0  0  0  0  0  0  0
  -20.5317   35.5499  -21.3685 C   0  0  0  0  0  0  0  0  0  0  0  0
  -19.5499   36.1836  -22.1155 C   0  0  0  0  0  0  0  0  0  0  0  0
  -18.6447   35.5169  -23.4547 Cl  0  0  0  0  0  0  0  0  0  0  0  0
  -19.4193   37.4498  -21.5997 C   0  0  0  0  0  0  0  0  0  0  0  0
  1  2  1  0
  2  3  1  0
  3  4  1  0
  4  5  1  0
  5  6  1  0
  6  7  1  0
  7  8  2  0
  8  9  1  0
  9 10  2  0
 10 11  1  0
 11 12  2  0
 11 13  1  0
 13 14  1  0
 14 15  1  0
 15 16  1  0
 16 17  1  0
 17 18  1  0
 10 19  1  0
 19 20  2  0
 20 21  1  0
 21 22  1  0
  5 23  2  0
 23 24  1  0
 24 25  2  0
 25 26  1  0
 26 27  2  0
 27 28  1  0
 27 29  1  0
 29  3  2  0
 20  7  1  0
 29 24  1  0
 18 13  1  0
M  END
$$$$
