
     RDKit          3D

 42 46  0  0  0  0  0  0  0  0999 V2000
  -44.5943    3.1401  -39.8309 C   0  0  0  0  0  0  0  0  0  0  0  0
  -45.2737    4.3883  -39.2933 C   0  0  0  0  0  0  0  0  0  0  0  0
  -45.4970    4.2297  -37.7992 C   0  0  0  0  0  0  0  0  0  0  0  0
  -45.0594    5.5406  -37.1663 C   0  0  0  0  0  0  0  0  0  0  0  0
  -46.0997    6.5756  -37.2857 C   0  0  0  0  0  0  0  0  0  0  0  0
  -47.3651    6.2666  -37.2575 N   0  0  0  0  0  0  0  0  0  0  0  0
  -48.2087    7.4049  -37.3882 C   0  0  0  0  0  0  0  0  0  0  0  0
  -49.0775    7.3929  -38.6302 C   0  0  0  0  0  0  0  0  0  0  0  0
  -50.4376    6.9173  -38.2321 C   0  0  0  0  0  0  0  0  0  0  0  0
  -50.4934    6.9953  -36.7464 C   0  0  0  0  0  0  0  0  0  0  0  0
  -49.1898    7.5531  -36.2420 C   0  0  0  0  0  0  0  0  0  0  0  0
  -47.2547    8.5313  -37.4243 C   0  0  0  0  0  0  0  0  0  0  0  0
  -47.4827    9.7610  -37.4727 O   0  0  0  0  0  0  0  0  0  0  0  0
  -45.9299    7.9700  -37.3923 N   0  0  0  0  0  0  0  0  0  0  0  0
  -44.7122    8.7317  -37.4623 C   0  0  0  0  0  0  0  0  0  0  0  0
  -44.1980    9.0523  -36.0813 C   0  0  0  0  0  0  0  0  0  0  0  0
  -42.9031    9.5136  -35.9557 C   0  0  0  0  0  0  0  0  0  0  0  0
  -42.3964    9.8195  -34.7119 C   0  0  0  0  0  0  0  0  0  0  0  0
  -43.1537    9.6804  -33.5445 C   0  0  0  0  0  0  0  0  0  0  0  0
  -42.5284   10.0746  -32.3049 C   0  0  0  0  0  0  0  0  0  0  0  0
  -42.9641   11.1596  -31.5537 C   0  0  0  0  0  0  0  0  0  0  0  0
  -42.3450   11.4598  -30.3597 C   0  0  0  0  0  0  0  0  0  0  0  0
  -41.2936   10.7217  -29.8635 C   0  0  0  0  0  0  0  0  0  0  0  0
  -40.8829    9.6519  -30.6265 C   0  0  0  0  0  0  0  0  0  0  0  0
  -41.4724    9.3198  -31.8180 C   0  0  0  0  0  0  0  0  0  0  0  0
  -40.9311    7.9272  -32.7078 S   0  0  0  0  0  6  0  0  0  0  0  0
  -39.7315    8.1469  -33.5474 O   0  0  0  0  0  0  0  0  0  0  0  0
  -42.0199    7.3917  -33.6049 O   0  0  0  0  0  0  0  0  0  0  0  0
  -40.6427    6.6508  -31.5432 N   0  0  0  0  0  0  0  0  0  0  0  0
  -41.6715    6.1955  -30.6906 C   0  0  0  0  0  0  0  0  0  0  0  0
  -42.8489    6.7672  -30.3605 N   0  0  0  0  0  0  0  0  0  0  0  0
  -43.4898    5.9890  -29.5363 O   0  0  0  0  0  0  0  0  0  0  0  0
  -42.8059    4.9130  -29.2876 C   0  0  0  0  0  0  0  0  0  0  0  0
  -43.2012    3.7789  -28.3918 C   0  0  0  0  0  0  0  0  0  0  0  0
  -41.6475    5.0081  -30.0015 C   0  0  0  0  0  0  0  0  0  0  0  0
  -40.5366    4.0058  -30.0356 C   0  0  0  0  0  0  0  0  0  0  0  0
  -44.4236    9.2272  -33.6618 C   0  0  0  0  0  0  0  0  0  0  0  0
  -45.3812    8.9560  -32.5567 C   0  0  0  0  0  0  0  0  0  0  0  0
  -45.5916    7.7003  -32.1912 O   0  0  0  0  0  0  0  0  0  0  0  0
  -45.9993    6.6724  -32.9161 C   0  0  0  0  0  0  0  0  0  0  0  0
  -46.0703    5.3566  -32.1267 C   0  0  0  0  0  0  0  0  0  0  0  0
  -44.9406    8.9138  -34.9529 C   0  0  0  0  0  0  0  0  0  0  0  0
  1  2  1  0
  2  3  1  0
  3  4  1  0
  4  5  1  0
  5  6  2  0
  6  7  1  0
  7  8  1  0
  8  9  1  0
  9 10  1  0
 10 11  1  0
  7 12  1  0
 12 13  2  0
 12 14  1  0
 14 15  1  0
 15 16  1  0
 16 17  2  0
 17 18  1  0
 18 19  2  0
 19 20  1  0
 20 21  2  0
 21 22  1  0
 22 23  2  0
 23 24  1  0
 24 25  2  0
 25 26  1  0
 26 27  2  0
 26 28  2  0
 26 29  1  0
 29 30  1  0
 30 31  2  0
 31 32  1  0
 32 33  1  0
 33 34  1  0
 33 35  2  0
 35 36  1  0
 19 37  1  0
 37 38  1  0
 38 39  1  0
 39 40  1  0
 40 41  1  0
 37 42  2  0
 14  5  1  0
 42 16  1  0
 11  7  1  0
 25 20  1  0
 35 30  1  0
M  END
$$$$
