
     RDKit          3D

 25 28  0  0  0  0  0  0  0  0999 V2000
  -18.5744   40.6976  -19.3814 C   0  0  0  0  0  0  0  0  0  0  0  0
  -18.8030   41.2030  -20.7787 C   0  0  2  0  0  0  0  0  0  0  0  0
  -17.5944   41.6918  -21.4829 C   0  0  0  0  0  0  0  0  0  0  0  0
  -17.4938   43.1255  -21.8123 C   0  0  2  0  0  0  0  0  0  0  0  0
  -16.1084   43.4279  -21.8637 O   0  0  0  0  0  0  0  0  0  0  0  0
  -18.1579   44.1075  -20.9362 C   0  0  1  0  0  0  0  0  0  0  0  0
  -19.1527   43.4432  -19.9622 C   0  0  1  0  0  0  0  0  0  0  0  0
  -20.0735   44.5421  -19.4989 C   0  0  0  0  0  0  0  0  0  0  0  0
  -19.2406   45.3985  -18.5359 C   0  0  0  0  0  0  0  0  0  0  0  0
  -17.9601   45.8003  -19.1646 C   0  0  0  0  0  0  0  0  0  0  0  0
  -17.4174   46.9289  -18.6917 C   0  0  0  0  0  0  0  0  0  0  0  0
  -16.1706   47.3861  -19.2535 C   0  0  0  0  0  0  0  0  0  0  0  0
  -15.3250   48.0193  -18.5823 O   0  0  0  0  0  0  0  0  0  0  0  0
  -15.8592   47.1063  -20.6765 C   0  0  0  0  0  0  0  0  0  0  0  0
  -16.8470   46.1298  -21.2715 C   0  0  0  0  0  0  0  0  0  0  0  0
  -17.2620   45.0805  -20.2291 C   0  0  2  0  0  0  0  0  0  0  0  0
  -16.0181   44.4598  -19.6625 C   0  0  0  0  0  0  0  0  0  0  0  0
  -19.7759   42.3963  -20.7688 C   0  0  2  0  0  0  0  0  0  0  0  0
  -21.0245   41.7710  -20.3357 C   0  0  0  0  0  0  0  0  0  0  0  0
  -21.0793   40.6061  -21.3434 C   0  0  0  0  0  0  0  0  0  0  0  0
  -19.6096   40.1851  -21.5118 C   0  0  2  0  0  0  0  0  0  0  0  0
  -19.4791   38.7974  -21.0523 C   0  0  0  0  0  0  0  0  0  0  0  0
  -19.2911   38.5490  -19.8455 O   0  0  0  0  0  0  0  0  0  0  0  0
  -19.5462   37.5758  -21.8836 C   0  0  0  0  0  0  0  0  0  0  0  0
  -18.3494   37.0362  -22.2538 O   0  0  0  0  0  0  0  0  0  0  0  0
  2  1  1  1
  2  3  1  0
  3  4  1  0
  4  5  1  1
  6  4  1  1
  6  7  1  0
  7  8  1  6
  8  9  1  0
  9 10  1  0
 10 11  2  0
 11 12  1  0
 12 13  2  0
 12 14  1  0
 14 15  1  0
 15 16  1  0
 16 17  1  1
  7 18  1  0
 18 19  1  1
 19 20  1  0
 20 21  1  0
 21 22  1  1
 22 23  2  0
 22 24  1  0
 24 25  1  0
 18  2  1  0
 21  2  1  0
 16  6  1  0
 16 10  1  0
M  END
$$$$
