
     RDKit          3D

 35 38  0  0  0  0  0  0  0  0999 V2000
  -16.1553   43.0260  -16.8999 C   0  0  0  0  0  0  0  0  0  0  0  0
  -14.9118   43.3666  -17.6112 C   0  0  0  0  0  0  0  0  0  0  0  0
  -13.8118   43.9715  -17.1544 N   0  0  0  0  0  0  0  0  0  0  0  0
  -12.9192   44.0897  -18.1099 N   0  0  0  0  0  0  0  0  0  0  0  0
  -13.4234   43.5464  -19.2633 C   0  0  0  0  0  0  0  0  0  0  0  0
  -12.6269   43.4927  -20.5191 C   0  0  0  0  0  0  0  0  0  0  0  0
  -12.5450   42.2666  -21.0608 F   0  0  0  0  0  0  0  0  0  0  0  0
  -13.0979   44.4097  -21.4465 F   0  0  0  0  0  0  0  0  0  0  0  0
  -11.3096   43.8909  -20.2209 F   0  0  0  0  0  0  0  0  0  0  0  0
  -14.6842   43.0846  -18.9692 C   0  0  0  0  0  0  0  0  0  0  0  0
  -15.5681   42.3783  -19.8851 C   0  0  0  0  0  0  0  0  0  0  0  0
  -16.6485   43.1220  -20.5136 C   0  0  0  0  0  0  0  0  0  0  0  0
  -16.9372   44.8963  -20.1302 S   0  0  0  0  0  0  0  0  0  0  0  0
  -18.2902   45.1026  -21.1804 C   0  0  0  0  0  0  0  0  0  0  0  0
  -18.4674   43.8942  -21.7515 C   0  0  0  0  0  0  0  0  0  0  0  0
  -17.6399   42.8884  -21.4179 C   0  0  0  0  0  0  0  0  0  0  0  0
  -17.7356   41.4929  -21.9821 C   0  0  0  0  0  0  0  0  0  0  0  0
  -17.2871   41.2616  -23.1313 O   0  0  0  0  0  0  0  0  0  0  0  0
  -18.3239   40.4634  -21.2156 N   0  0  0  0  0  0  0  0  0  0  0  0
  -18.8340   40.5542  -19.8549 C   0  0  0  0  0  0  0  0  0  0  0  0
  -20.0285   39.6152  -19.9427 C   0  0  2  0  0  0  0  0  0  0  0  0
  -21.2960   40.3479  -20.2267 C   0  0  0  0  0  0  0  0  0  0  0  0
  -20.1699   38.9533  -18.7128 O   0  0  0  0  0  0  0  0  0  0  0  0
  -19.5869   38.6775  -21.0312 C   0  0  0  0  0  0  0  0  0  0  0  0
  -18.5012   39.2048  -21.6779 O   0  0  0  0  0  0  0  0  0  0  0  0
  -19.5464   43.8459  -22.6629 C   0  0  0  0  0  0  0  0  0  0  0  0
  -19.8596   42.8082  -23.2866 O   0  0  0  0  0  0  0  0  0  0  0  0
  -20.2701   44.9389  -22.8794 N   0  0  0  0  0  0  0  0  0  0  0  0
  -21.3861   44.8895  -23.8241 C   0  0  0  0  0  0  0  0  0  0  0  0
  -20.0643   46.1315  -22.2902 C   0  0  0  0  0  0  0  0  0  0  0  0
  -20.7635   47.1366  -22.5170 O   0  0  0  0  0  0  0  0  0  0  0  0
  -19.0485   46.2121  -21.4197 N   0  0  0  0  0  0  0  0  0  0  0  0
  -18.7648   47.4660  -20.7433 C   0  0  0  0  0  0  0  0  0  0  0  0
  -18.8175   47.2869  -19.2235 C   0  0  0  0  0  0  0  0  0  0  0  0
  -17.3783   47.9838  -21.0627 C   0  0  0  0  0  0  0  0  0  0  0  0
  1  2  1  0
  2  3  1  0
  3  4  1  0
  4  5  2  0
  5  6  1  0
  6  7  1  0
  6  8  1  0
  6  9  1  0
  5 10  1  0
 10 11  1  0
 11 12  1  0
 12 13  1  0
 13 14  1  0
 14 15  2  0
 15 16  1  0
 16 17  1  0
 17 18  2  0
 17 19  1  0
 19 20  1  0
 20 21  1  0
 21 22  1  6
 21 23  1  0
 21 24  1  0
 24 25  1  0
 15 26  1  0
 26 27  2  0
 26 28  1  0
 28 29  1  0
 28 30  1  0
 30 31  2  0
 30 32  1  0
 32 33  1  0
 33 34  1  0
 33 35  1  0
 10  2  2  0
 16 12  2  0
 25 19  1  0
 32 14  1  0
M  END
$$$$
