
     RDKit          3D

  9  9  0  0  0  0  0  0  0  0999 V2000
  -29.9179   13.8749  -22.2580 C   0  0  0  0  0  0  0  0  0  0  0  0
  -28.9666   14.9007  -22.7804 C   0  0  0  0  0  0  0  0  0  0  0  0
  -27.7392   15.2550  -22.2388 C   0  0  0  0  0  0  0  0  0  0  0  0
  -27.2087   16.2339  -23.0405 C   0  0  0  0  0  0  0  0  0  0  0  0
  -25.9294   16.8987  -22.8466 C   0  0  0  0  0  0  0  0  0  0  0  0
  -25.1377   16.5702  -21.9317 O   0  0  0  0  0  0  0  0  0  0  0  0
  -25.5467   17.9316  -23.6846 O   0  0  0  0  0  0  0  0  0  0  0  0
  -28.1070   16.4456  -24.0275 N   0  0  0  0  0  0  0  0  0  0  0  0
  -29.1429   15.6496  -23.8613 N   0  0  0  0  0  0  0  0  0  0  0  0
  1  2  1  0
  2  3  1  0
  3  4  2  0
  4  5  1  0
  5  6  2  0
  5  7  1  0
  4  8  1  0
  8  9  1  0
  9  2  2  0
M  END
$$$$
