
     RDKit          3D

 30 34  0  0  0  0  0  0  0  0999 V2000
  -16.1644   41.1118  -22.2337 C   0  0  0  0  0  0  0  0  0  0  0  0
  -17.6538   41.2961  -22.1043 C   0  0  0  0  0  0  0  0  0  0  0  0
  -18.1380   42.5682  -22.0104 C   0  0  0  0  0  0  0  0  0  0  0  0
  -19.4918   42.8169  -21.8895 C   0  0  0  0  0  0  0  0  0  0  0  0
  -19.9582   44.1424  -21.8023 N   0  0  0  0  0  0  0  0  0  0  0  0
  -21.2405   44.5272  -22.3009 C   0  0  0  0  0  0  0  0  0  0  0  0
  -20.9543   45.5311  -23.4331 C   0  0  0  0  0  0  0  0  0  0  0  0
  -19.9554   46.4063  -23.0767 O   0  0  0  0  0  0  0  0  0  0  0  0
  -19.7102   46.4898  -21.7131 C   0  0  0  0  0  0  0  0  0  0  0  0
  -19.1262   45.1600  -21.2017 C   0  0  0  0  0  0  0  0  0  0  0  0
  -20.3188   41.7163  -21.8694 C   0  0  0  0  0  0  0  0  0  0  0  0
  -19.8136   40.4192  -21.9660 C   0  0  0  0  0  0  0  0  0  0  0  0
  -18.4703   40.1544  -22.0867 C   0  0  0  0  0  0  0  0  0  0  0  0
  -17.8758   38.8931  -22.1882 N   0  0  0  0  0  0  0  0  0  0  0  0
  -18.5439   37.6413  -22.1140 C   0  0  0  0  0  0  0  0  0  0  0  0
  -19.7750   37.5196  -22.6132 N   0  0  0  0  0  0  0  0  0  0  0  0
  -20.5205   36.3825  -22.6063 C   0  0  0  0  0  0  0  0  0  0  0  0
  -21.8184   36.3869  -23.1502 N   0  0  0  0  0  0  0  0  0  0  0  0
  -22.5672   37.3925  -23.8042 C   0  0  0  0  0  0  0  0  0  0  0  0
  -23.9529   37.0186  -24.2682 C   0  0  0  0  0  0  0  0  0  0  0  0
  -24.3288   38.0107  -25.3726 C   0  0  0  0  0  0  0  0  0  0  0  0
  -24.2095   39.4285  -24.8970 C   0  0  0  0  0  0  0  0  0  0  0  0
  -23.8377   39.5030  -23.4336 C   0  0  0  0  0  0  0  0  0  0  0  0
  -22.5058   38.7731  -23.2229 C   0  0  0  0  0  0  0  0  0  0  0  0
  -19.9731   35.2573  -22.0409 C   0  0  0  0  0  0  0  0  0  0  0  0
  -20.3814   33.9920  -21.8425 N   0  0  0  0  0  0  0  0  0  0  0  0
  -19.4002   33.3320  -21.2203 C   0  0  0  0  0  0  0  0  0  0  0  0
  -18.3644   34.1566  -21.0150 N   0  0  0  0  0  0  0  0  0  0  0  0
  -18.6975   35.3627  -21.5176 C   0  0  0  0  0  0  0  0  0  0  0  0
  -18.0199   36.5420  -21.5666 N   0  0  0  0  0  0  0  0  0  0  0  0
  1  2  1  0
  2  3  2  0
  3  4  1  0
  4  5  1  0
  5  6  1  0
  6  7  1  0
  7  8  1  0
  8  9  1  0
  9 10  1  0
  4 11  2  0
 11 12  1  0
 12 13  2  0
 13 14  1  0
 14 15  1  0
 15 16  2  0
 16 17  1  0
 17 18  1  0
 18 19  1  0
 19 20  1  0
 20 21  1  0
 21 22  1  0
 22 23  1  0
 23 24  1  0
 17 25  2  0
 25 26  1  0
 26 27  2  0
 27 28  1  0
 28 29  1  0
 29 30  2  0
 13  2  1  0
 30 15  1  0
 10  5  1  0
 24 19  1  0
 29 25  1  0
M  END
$$$$
