
     RDKit          3D

 21 23  0  0  0  0  0  0  0  0999 V2000
  -20.9411   44.3419  -28.3661 O   0  0  0  0  0  0  0  0  0  0  0  0
  -21.3415   43.7476  -27.1934 C   0  0  0  0  0  0  0  0  0  0  0  0
  -22.6753   43.6025  -26.9170 C   0  0  0  0  0  0  0  0  0  0  0  0
  -23.0745   42.9954  -25.7189 C   0  0  0  0  0  0  0  0  0  0  0  0
  -24.4172   42.8682  -25.4780 O   0  0  0  0  0  0  0  0  0  0  0  0
  -22.1045   42.5575  -24.8448 C   0  0  0  0  0  0  0  0  0  0  0  0
  -20.7601   42.6952  -25.1064 C   0  0  0  0  0  0  0  0  0  0  0  0
  -20.4045   43.2997  -26.2997 C   0  0  0  0  0  0  0  0  0  0  0  0
  -19.8293   42.2312  -24.1808 O   0  0  0  0  0  0  0  0  0  0  0  0
  -20.1278   42.2675  -22.7759 C   0  0  2  0  0  0  0  0  0  0  0  0
  -19.5534   41.1094  -22.0790 C   0  0  0  0  0  0  0  0  0  0  0  0
  -19.6446   41.0396  -20.7094 C   0  0  0  0  0  0  0  0  0  0  0  0
  -19.0939   39.9389  -20.0917 C   0  0  0  0  0  0  0  0  0  0  0  0
  -18.4658   38.9203  -20.7698 C   0  0  0  0  0  0  0  0  0  0  0  0
  -17.9355   37.8424  -20.0693 O   0  0  0  0  0  0  0  0  0  0  0  0
  -18.3773   38.9984  -22.1585 C   0  0  0  0  0  0  0  0  0  0  0  0
  -17.7517   37.9858  -22.8449 O   0  0  0  0  0  0  0  0  0  0  0  0
  -18.9329   40.1119  -22.7990 C   0  0  0  0  0  0  0  0  0  0  0  0
  -21.5707   42.5015  -22.4927 C   0  0  2  0  0  0  0  0  0  0  0  0
  -21.9681   41.9114  -21.2802 O   0  0  0  0  0  0  0  0  0  0  0  0
  -22.4609   41.9072  -23.5611 C   0  0  0  0  0  0  0  0  0  0  0  0
  1  2  1  0
  2  3  2  0
  3  4  1  0
  4  5  1  0
  4  6  2  0
  6  7  1  0
  7  8  2  0
  7  9  1  0
  9 10  1  0
 10 11  1  6
 11 12  2  0
 12 13  1  0
 13 14  2  0
 14 15  1  0
 14 16  1  0
 16 17  1  0
 16 18  2  0
 10 19  1  0
 19 20  1  1
 19 21  1  0
  8  2  1  0
 18 11  1  0
 21  6  1  0
M  END
$$$$
