
     RDKit          3D

 20 21  0  0  0  0  0  0  0  0999 V2000
  -14.8150   46.1949  -20.8283 C   0  0  0  0  0  0  0  0  0  0  0  0
  -15.6417   45.3019  -21.7821 C   0  0  0  0  0  0  0  0  0  0  0  0
  -16.2394   44.2675  -20.8517 C   0  0  0  0  0  0  0  0  0  0  0  0
  -17.3523   43.6762  -21.1929 C   0  0  0  0  0  0  0  0  0  0  0  0
  -18.1127   44.1789  -22.3667 C   0  0  0  0  0  0  0  0  0  0  0  0
  -19.4433   44.7125  -21.9499 C   0  0  0  0  0  0  0  0  0  0  0  0
  -17.9291   42.5897  -20.3648 C   0  0  0  0  0  0  0  0  0  0  0  0
  -18.6906   42.8444  -19.2367 C   0  0  0  0  0  0  0  0  0  0  0  0
  -19.2091   41.8409  -18.4538 C   0  0  0  0  0  0  0  0  0  0  0  0
  -18.9714   40.5461  -18.7911 C   0  0  0  0  0  0  0  0  0  0  0  0
  -19.4735   39.4713  -18.0331 O   0  0  0  0  0  0  0  0  0  0  0  0
  -18.2206   40.2376  -19.9028 C   0  0  0  0  0  0  0  0  0  0  0  0
  -17.7012   41.2863  -20.6870 C   0  0  0  0  0  0  0  0  0  0  0  0
  -15.5574   44.0096  -19.5875 C   0  0  0  0  0  0  0  0  0  0  0  0
  -14.6094   43.0636  -19.3559 C   0  0  0  0  0  0  0  0  0  0  0  0
  -14.0589   42.9806  -18.0986 C   0  0  0  0  0  0  0  0  0  0  0  0
  -14.4533   43.8332  -17.0872 C   0  0  0  0  0  0  0  0  0  0  0  0
  -13.8838   43.7378  -15.8092 O   0  0  0  0  0  0  0  0  0  0  0  0
  -15.4133   44.8039  -17.2887 C   0  0  0  0  0  0  0  0  0  0  0  0
  -15.9525   44.8731  -18.5505 C   0  0  0  0  0  0  0  0  0  0  0  0
  1  2  1  0
  2  3  1  0
  3  4  2  0
  4  5  1  0
  5  6  1  0
  4  7  1  0
  7  8  2  0
  8  9  1  0
  9 10  2  0
 10 11  1  0
 10 12  1  0
 12 13  2  0
  3 14  1  0
 14 15  2  0
 15 16  1  0
 16 17  2  0
 17 18  1  0
 17 19  1  0
 19 20  2  0
 13  7  1  0
 20 14  1  0
M  END
$$$$
