
     RDKit          3D

 28 31  0  0  0  0  0  0  0  0999 V2000
  -14.3821   12.5511  -25.6547 C   0  0  0  0  0  0  0  0  0  0  0  0
  -13.2067   11.7231  -26.1209 C   0  0  0  0  0  0  0  0  0  0  0  0
  -11.9614   12.5716  -25.9303 C   0  0  0  0  0  0  0  0  0  0  0  0
  -13.3170   11.4082  -27.5965 C   0  0  0  0  0  0  0  0  0  0  0  0
  -14.3287   12.3329  -28.2348 C   0  0  0  0  0  0  0  0  0  0  0  0
  -14.3639   12.0986  -29.7609 C   0  0  0  0  0  0  0  0  0  0  0  0
  -14.3633   13.4160  -30.4843 C   0  0  0  0  0  0  0  0  0  0  0  0
  -13.1334   13.6048  -31.3424 C   0  0  0  0  0  0  0  0  0  0  0  0
  -15.6359   13.8542  -31.0879 C   0  0  0  0  0  0  0  0  0  0  0  0
  -16.7496   13.2130  -30.2373 C   0  0  0  0  0  0  0  0  0  0  0  0
  -17.6113   14.3280  -29.7307 C   0  0  0  0  0  0  0  0  0  0  0  0
  -17.0711   15.6045  -30.2534 C   0  0  0  0  0  0  0  0  0  0  0  0
  -18.0674   16.6001  -30.7431 C   0  0  0  0  0  0  0  0  0  0  0  0
  -19.1003   16.7642  -29.6377 C   0  0  0  0  0  0  0  0  0  0  0  0
  -20.2326   17.5836  -30.1002 C   0  0  0  0  0  0  0  0  0  0  0  0
  -20.7260   17.3229  -31.3044 C   0  0  0  0  0  0  0  0  0  0  0  0
  -21.8729   18.1527  -31.7730 C   0  0  0  0  0  0  0  0  0  0  0  0
  -22.7797   17.3793  -32.6986 C   0  0  0  0  0  0  0  0  0  0  0  0
  -23.7223   18.2675  -33.2136 O   0  0  0  0  0  0  0  0  0  0  0  0
  -22.0304   16.6543  -33.7789 C   0  0  0  0  0  0  0  0  0  0  0  0
  -20.5630   16.5767  -33.5845 C   0  0  0  0  0  0  0  0  0  0  0  0
  -20.1473   16.2399  -32.1453 C   0  0  0  0  0  0  0  0  0  0  0  0
  -20.7482   14.9214  -31.8290 C   0  0  0  0  0  0  0  0  0  0  0  0
  -18.6575   16.3281  -32.0826 C   0  0  0  0  0  0  0  0  0  0  0  0
  -17.9581   15.1699  -32.7638 C   0  0  0  0  0  0  0  0  0  0  0  0
  -16.4789   15.4864  -32.6872 C   0  0  0  0  0  0  0  0  0  0  0  0
  -15.9732   15.2630  -31.2469 C   0  0  0  0  0  0  0  0  0  0  0  0
  -14.9049   16.2999  -31.0910 C   0  0  0  0  0  0  0  0  0  0  0  0
  1  2  1  0
  2  3  1  0
  2  4  1  0
  4  5  1  0
  5  6  1  0
  6  7  1  0
  7  8  1  0
  7  9  1  0
  9 10  1  0
 10 11  1  0
 11 12  1  0
 12 13  1  0
 13 14  1  0
 14 15  1  0
 15 16  2  0
 16 17  1  0
 17 18  1  0
 18 19  1  0
 18 20  1  0
 20 21  1  0
 21 22  1  0
 22 23  1  0
 22 24  1  0
 24 25  1  0
 25 26  1  0
 26 27  1  0
 27 28  1  0
 27  9  1  0
 27 12  1  0
 24 13  1  0
 22 16  1  0
M  END
$$$$
