
     RDKit          3D

 19 19  0  0  0  0  0  0  0  0999 V2000
  -15.5510   18.4820  -34.8006 C   0  0  0  0  0  0  0  0  0  0  0  0
  -16.6210   17.7072  -35.5114 C   0  0  0  0  0  0  0  0  0  0  0  0
  -17.4442   18.4364  -36.4084 N   0  0  0  0  0  0  0  0  0  0  0  0
  -18.6129   19.1377  -35.8042 C   0  0  0  0  0  0  0  0  0  0  0  0
  -19.8103   18.2161  -35.8048 C   0  0  0  0  0  0  0  0  0  0  0  0
  -17.2683   18.5546  -37.7649 C   0  0  0  0  0  0  0  0  0  0  0  0
  -18.1910   19.3156  -38.3248 O   0  0  0  0  0  0  0  0  0  0  0  0
  -16.3133   18.0337  -38.7365 C   0  0  2  0  0  0  0  0  0  0  0  0
  -15.0966   17.3497  -38.2688 C   0  0  0  0  0  0  0  0  0  0  0  0
  -14.8320   16.0363  -38.5695 C   0  0  0  0  0  0  0  0  0  0  0  0
  -13.6362   15.4328  -38.1985 C   0  0  0  0  0  0  0  0  0  0  0  0
  -12.6819   16.1448  -37.5152 C   0  0  0  0  0  0  0  0  0  0  0  0
  -12.9340   17.4564  -37.2093 C   0  0  0  0  0  0  0  0  0  0  0  0
  -14.1257   18.0343  -37.5868 C   0  0  0  0  0  0  0  0  0  0  0  0
  -15.9895   18.9025  -39.9727 C   0  0  0  0  0  0  0  0  0  0  0  0
  -16.8291   17.6374  -40.0737 C   0  0  2  0  0  0  0  0  0  0  0  0
  -18.1600   17.8977  -40.6439 C   0  0  0  0  0  0  0  0  0  0  0  0
  -18.5222   19.2907  -40.8123 N   0  0  0  0  0  0  0  0  0  0  0  0
  -16.8241   18.0046  -37.1271 Cl  0  0  0  0  0  0  0  0  0  0  0  0
  1  2  1  0
  2  3  1  0
  3  4  1  0
  4  5  1  0
  3  6  1  0
  6  7  2  0
  8  6  1  1
  8  9  1  0
  9 10  2  0
 10 11  1  0
 11 12  2  0
 12 13  1  0
 13 14  2  0
  8 15  1  0
 15 16  1  0
 16 17  1  1
 17 18  1  0
 16  8  1  0
 14  9  1  0
M  END
$$$$
