
     RDKit          3D

 24 26  0  0  0  0  0  0  0  0999 V2000
  -19.1020   44.9866  -24.8067 C   0  0  0  0  0  0  0  0  0  0  0  0
  -19.1319   44.5854  -23.3524 C   0  0  0  0  0  0  0  0  0  0  0  0
  -20.4458   44.4646  -22.8215 N   0  0  0  0  0  0  0  0  0  0  0  0
  -21.5052   44.5579  -23.7706 C   0  0  0  0  0  0  0  0  0  0  0  0
  -22.3922   45.7630  -23.4319 C   0  0  0  0  0  0  0  0  0  0  0  0
  -20.6238   43.1978  -21.6864 S   0  0  0  0  0  6  0  0  0  0  0  0
  -22.0236   42.6597  -21.6411 O   0  0  0  0  0  0  0  0  0  0  0  0
  -20.2730   43.6405  -20.2979 O   0  0  0  0  0  0  0  0  0  0  0  0
  -19.5401   41.8997  -22.1293 C   0  0  0  0  0  0  0  0  0  0  0  0
  -18.2724   42.1453  -22.6350 C   0  0  0  0  0  0  0  0  0  0  0  0
  -17.4095   41.1402  -22.9860 C   0  0  0  0  0  0  0  0  0  0  0  0
  -17.7951   39.8334  -22.8392 C   0  0  0  0  0  0  0  0  0  0  0  0
  -19.0423   39.5446  -22.3418 C   0  0  0  0  0  0  0  0  0  0  0  0
  -19.3993   38.1940  -22.2067 N   0  0  0  0  0  0  0  0  0  0  0  0
  -20.9717   37.4738  -22.7414 S   0  0  0  0  0  0  0  0  0  0  0  0
  -20.6097   35.8225  -22.2257 C   0  0  0  0  0  0  0  0  0  0  0  0
  -21.3552   34.6489  -22.2994 C   0  0  0  0  0  0  0  0  0  0  0  0
  -20.8069   33.4882  -21.8080 C   0  0  0  0  0  0  0  0  0  0  0  0
  -19.5496   33.5610  -21.2718 C   0  0  0  0  0  0  0  0  0  0  0  0
  -18.8291   34.7287  -21.2078 C   0  0  0  0  0  0  0  0  0  0  0  0
  -19.3774   35.9382  -21.7098 C   0  0  0  0  0  0  0  0  0  0  0  0
  -18.7683   37.1386  -21.7017 C   0  0  0  0  0  0  0  0  0  0  0  0
  -17.5655   37.3667  -21.2230 O   0  0  0  0  0  0  0  0  0  0  0  0
  -19.8833   40.5741  -21.9995 C   0  0  0  0  0  0  0  0  0  0  0  0
  1  2  1  0
  2  3  1  0
  3  4  1  0
  4  5  1  0
  3  6  1  0
  6  7  2  0
  6  8  2  0
  6  9  1  0
  9 10  2  0
 10 11  1  0
 11 12  2  0
 12 13  1  0
 13 14  1  0
 14 15  1  0
 15 16  1  0
 16 17  2  0
 17 18  1  0
 18 19  2  0
 19 20  1  0
 20 21  2  0
 21 22  1  0
 22 23  2  0
 13 24  2  0
 24  9  1  0
 22 14  1  0
 21 16  1  0
M  END
$$$$
