
     RDKit          3D

 17 19  0  0  0  0  0  0  0  0999 V2000
  -14.1372   18.2292  -31.2742 N   0  0  0  0  0  0  0  0  0  0  0  0
  -15.3962   17.6479  -31.5395 C   0  0  0  0  0  0  0  0  0  0  0  0
  -15.9406   17.6538  -32.8017 C   0  0  0  0  0  0  0  0  0  0  0  0
  -17.1885   17.0768  -33.0612 C   0  0  0  0  0  0  0  0  0  0  0  0
  -17.9217   16.4796  -32.0624 C   0  0  0  0  0  0  0  0  0  0  0  0
  -17.3823   16.4667  -30.7800 C   0  0  0  0  0  0  0  0  0  0  0  0
  -16.1516   17.0405  -30.5456 C   0  0  0  0  0  0  0  0  0  0  0  0
  -18.1434   15.8337  -29.6850 C   0  0  0  0  0  0  0  0  0  0  0  0
  -17.6428   15.8317  -28.5394 O   0  0  0  0  0  0  0  0  0  0  0  0
  -19.4437   15.2198  -29.8986 C   0  0  0  0  0  0  0  0  0  0  0  0
  -20.1272   14.6706  -29.0007 O   0  0  0  0  0  0  0  0  0  0  0  0
  -19.9551   15.2690  -31.2793 C   0  0  0  0  0  0  0  0  0  0  0  0
  -21.1847   14.6970  -31.5195 C   0  0  0  0  0  0  0  0  0  0  0  0
  -21.6880   14.7278  -32.7995 C   0  0  0  0  0  0  0  0  0  0  0  0
  -20.9736   15.3157  -33.7998 C   0  0  0  0  0  0  0  0  0  0  0  0
  -19.7291   15.9023  -33.5906 C   0  0  0  0  0  0  0  0  0  0  0  0
  -19.2391   15.8631  -32.3032 C   0  0  0  0  0  0  0  0  0  0  0  0
  1  2  1  0
  2  3  2  0
  3  4  1  0
  4  5  2  0
  5  6  1  0
  6  7  2  0
  6  8  1  0
  8  9  2  0
  8 10  1  0
 10 11  2  0
 10 12  1  0
 12 13  2  0
 13 14  1  0
 14 15  2  0
 15 16  1  0
 16 17  2  0
  7  2  1  0
 17 12  1  0
 17  5  1  0
M  END
$$$$
