
     RDKit          3D

 27 28  0  0  0  0  0  0  0  0999 V2000
  -15.9843   47.9155  -17.6915 C   0  0  0  0  0  0  0  0  0  0  0  0
  -16.5370   48.3186  -19.0425 C   0  0  0  0  0  0  0  0  0  0  0  0
  -17.3178   49.6153  -18.8194 C   0  0  0  0  0  0  0  0  0  0  0  0
  -15.4053   48.5787  -20.0112 C   0  0  0  0  0  0  0  0  0  0  0  0
  -17.4193   47.3209  -19.5227 O   0  0  0  0  0  0  0  0  0  0  0  0
  -17.0827   45.9930  -19.5870 C   0  0  0  0  0  0  0  0  0  0  0  0
  -17.7124   45.1922  -18.8670 O   0  0  0  0  0  0  0  0  0  0  0  0
  -16.0613   45.4680  -20.4223 N   0  0  0  0  0  0  0  0  0  0  0  0
  -15.9076   44.0585  -20.5471 C   0  0  0  0  0  0  0  0  0  0  0  0
  -16.5629   43.4336  -21.7269 C   0  0  0  0  0  0  0  0  0  0  0  0
  -17.8292   42.7231  -21.3631 C   0  0  0  0  0  0  0  0  0  0  0  0
  -19.0377   42.8429  -21.8917 N   0  0  0  0  0  0  0  0  0  0  0  0
  -19.8356   42.0162  -21.2460 N   0  0  0  0  0  0  0  0  0  0  0  0
  -19.0805   41.4028  -20.3243 C   0  0  0  0  0  0  0  0  0  0  0  0
  -19.6113   40.1924  -19.1689 S   0  0  0  0  0  6  0  0  0  0  0  0
  -20.6996   40.7764  -18.3021 O   0  0  0  0  0  0  0  0  0  0  0  0
  -18.4411   39.7563  -18.3645 O   0  0  0  0  0  0  0  0  0  0  0  0
  -20.3218   38.8644  -20.0856 C   0  0  0  0  0  0  0  0  0  0  0  0
  -19.3509   38.1194  -20.8973 C   0  0  0  0  0  0  0  0  0  0  0  0
  -18.6758   37.0654  -20.3113 C   0  0  0  0  0  0  0  0  0  0  0  0
  -17.7689   36.3669  -21.0580 C   0  0  0  0  0  0  0  0  0  0  0  0
  -17.5017   36.6776  -22.3831 C   0  0  0  0  0  0  0  0  0  0  0  0
  -16.3349   35.7670  -23.3180 Cl  0  0  0  0  0  0  0  0  0  0  0  0
  -18.2006   37.7377  -22.9232 C   0  0  0  0  0  0  0  0  0  0  0  0
  -19.1281   38.4755  -22.2091 C   0  0  0  0  0  0  0  0  0  0  0  0
  -19.9604   39.7978  -22.9861 Cl  0  0  0  0  0  0  0  0  0  0  0  0
  -17.8570   41.8345  -20.3963 O   0  0  0  0  0  0  0  0  0  0  0  0
  1  2  1  0
  2  3  1  0
  2  4  1  0
  2  5  1  0
  5  6  1  0
  6  7  2  0
  6  8  1  0
  8  9  1  0
  9 10  1  0
 10 11  1  0
 11 12  2  0
 12 13  1  0
 13 14  2  0
 14 15  1  0
 15 16  2  0
 15 17  2  0
 15 18  1  0
 18 19  1  0
 19 20  2  0
 20 21  1  0
 21 22  2  0
 22 23  1  0
 22 24  1  0
 24 25  2  0
 25 26  1  0
 14 27  1  0
 27 11  1  0
 25 19  1  0
M  END
$$$$
