
     RDKit          3D

 14 16  0  0  0  0  0  0  0  0999 V2000
  -22.3614   37.9639  -22.5667 O   0  0  0  0  0  0  0  0  0  0  0  0
  -21.1172   38.1398  -22.5933 C   0  0  0  0  0  0  0  0  0  0  0  0
  -20.6060   39.3821  -22.5850 N   0  0  0  0  0  0  0  0  0  0  0  0
  -19.2583   39.5724  -22.6137 C   0  0  0  0  0  0  0  0  0  0  0  0
  -18.2813   41.0633  -22.6123 S   0  0  0  0  0  0  0  0  0  0  0  0
  -16.6810   40.2674  -22.6633 C   0  0  0  0  0  0  0  0  0  0  0  0
  -17.0229   38.9247  -22.6773 C   0  0  0  0  0  0  0  0  0  0  0  0
  -18.3175   38.5964  -22.6521 C   0  0  0  0  0  0  0  0  0  0  0  0
  -18.8632   37.2828  -22.6608 C   0  0  0  0  0  0  0  0  0  0  0  0
  -18.0529   36.1711  -22.6983 C   0  0  0  0  0  0  0  0  0  0  0  0
  -18.5967   34.9169  -22.7060 C   0  0  0  0  0  0  0  0  0  0  0  0
  -19.9707   34.7029  -22.6770 C   0  0  0  0  0  0  0  0  0  0  0  0
  -20.7652   35.8172  -22.6399 C   0  0  0  0  0  0  0  0  0  0  0  0
  -20.2077   37.0949  -22.6320 C   0  0  0  0  0  0  0  0  0  0  0  0
  1  2  2  0
  2  3  1  0
  3  4  1  0
  4  5  1  0
  5  6  1  0
  6  7  2  0
  7  8  1  0
  8  9  1  0
  9 10  2  0
 10 11  1  0
 11 12  2  0
 12 13  1  0
 13 14  2  0
 14  2  1  0
  8  4  2  0
 14  9  1  0
M  END
$$$$
