
     RDKit          3D

 19 18  0  0  0  0  0  0  0  0999 V2000
  -16.1473   42.5960  -20.7035 C   0  0  0  0  0  0  0  0  0  0  0  0
  -17.3480   42.9202  -21.5591 C   0  0  0  0  0  0  0  0  0  0  0  0
  -17.3247   44.4012  -21.9044 C   0  0  0  0  0  0  0  0  0  0  0  0
  -17.3766   42.1978  -22.7846 N   0  0  0  0  0  0  0  0  0  0  0  0
  -17.4257   40.7692  -22.6623 C   0  0  0  0  0  0  0  0  0  0  0  0
  -18.7662   40.3768  -22.0916 C   0  0  0  0  0  0  0  0  0  0  0  0
  -19.7543   40.8308  -22.9649 O   0  0  0  0  0  0  0  0  0  0  0  0
  -18.8820   38.9000  -21.9141 C   0  0  0  0  0  0  0  0  0  0  0  0
  -19.0565   38.0612  -22.9998 C   0  0  0  0  0  0  0  0  0  0  0  0
  -19.1618   36.6930  -22.8203 C   0  0  0  0  0  0  0  0  0  0  0  0
  -19.0998   36.1053  -21.5767 C   0  0  0  0  0  0  0  0  0  0  0  0
  -19.2074   34.6761  -21.4071 N   0  0  0  0  0  0  0  0  0  0  0  0
  -18.3812   33.5668  -22.3967 S   0  0  0  0  0  6  0  0  0  0  0  0
  -16.6187   33.7371  -22.2900 C   0  0  0  0  0  0  0  0  0  0  0  0
  -18.7843   32.1717  -22.0118 O   0  0  0  0  0  0  0  0  0  0  0  0
  -18.8396   33.7679  -23.8299 O   0  0  0  0  0  0  0  0  0  0  0  0
  -18.9263   36.9443  -20.4959 C   0  0  0  0  0  0  0  0  0  0  0  0
  -18.8206   38.3107  -20.6706 C   0  0  0  0  0  0  0  0  0  0  0  0
  -17.9885   38.3131  -21.9137 Cl  0  0  0  0  0  0  0  0  0  0  0  0
  1  2  1  0
  2  3  1  0
  2  4  1  0
  4  5  1  0
  5  6  1  0
  6  7  1  0
  6  8  1  0
  8  9  2  0
  9 10  1  0
 10 11  2  0
 11 12  1  0
 12 13  1  0
 13 14  1  0
 13 15  2  0
 13 16  2  0
 11 17  1  0
 17 18  2  0
 18  8  1  0
M  END
$$$$
