
     RDKit          3D

 42 43  0  0  0  0  0  0  0  0999 V2000
  -12.1600   16.8654  -41.3429 C   0  0  0  0  0  0  0  0  0  0  0  0
  -12.3681   16.7804  -40.0577 C   0  0  0  0  0  0  0  0  0  0  0  0
  -12.6005   18.0124  -39.2147 C   0  0  0  0  0  0  0  0  0  0  0  0
  -13.9628   18.1117  -38.8029 N   0  0  0  0  0  0  0  0  0  0  0  0
  -15.0397   18.4403  -39.7140 C   0  0  0  0  0  0  0  0  0  0  0  0
  -16.2982   17.9287  -39.5335 C   0  0  0  0  0  0  0  0  0  0  0  0
  -16.3177   17.0415  -38.3567 C   0  0  0  0  0  0  0  0  0  0  0  0
  -16.8811   17.4307  -37.0678 C   0  0  1  0  0  0  0  0  0  0  0  0
  -15.8499   17.8726  -36.0340 C   0  0  0  0  0  0  0  0  0  0  0  0
  -17.9985   18.3848  -36.9523 C   0  0  0  0  0  0  0  0  0  0  0  0
  -18.7857   18.0388  -35.6899 C   0  0  2  0  0  0  0  0  0  0  0  0
  -19.1641   16.7200  -35.6340 O   0  0  0  0  0  0  0  0  0  0  0  0
  -19.3008   16.1688  -34.3943 C   0  0  0  0  0  0  0  0  0  0  0  0
  -20.0156   18.8832  -35.6086 C   0  0  2  0  0  0  0  0  0  0  0  0
  -20.3063   19.2336  -34.2827 O   0  0  0  0  0  0  0  0  0  0  0  0
  -21.1725   18.3104  -36.3230 C   0  0  1  0  0  0  0  0  0  0  0  0
  -21.7031   17.2008  -35.3936 C   0  0  0  0  0  0  0  0  0  0  0  0
  -22.2840   19.2671  -36.7195 C   0  0  0  0  0  0  0  0  0  0  0  0
  -22.4776   20.3564  -37.3821 C   0  0  0  0  0  0  0  0  0  0  0  0
  -23.8024   21.1174  -37.6075 C   0  0  0  0  0  0  0  0  0  0  0  0
  -21.5288   21.2638  -38.1681 C   0  0  2  0  0  0  0  0  0  0  0  0
  -22.2105   22.2832  -38.8890 O   0  0  0  0  0  0  0  0  0  0  0  0
  -23.0448   23.2179  -38.3378 C   0  0  0  0  0  0  0  0  0  0  0  0
  -24.4508   23.0480  -38.2044 N   0  0  0  0  0  0  0  0  0  0  0  0
  -22.5358   24.2890  -37.9259 O   0  0  0  0  0  0  0  0  0  0  0  0
  -20.6572   20.6265  -39.2186 C   0  0  1  0  0  0  0  0  0  0  0  0
  -21.1813   20.7400  -40.4519 O   0  0  0  0  0  0  0  0  0  0  0  0
  -20.3345   20.9294  -41.5036 C   0  0  0  0  0  0  0  0  0  0  0  0
  -19.2975   21.1697  -38.9887 C   0  0  0  0  0  0  0  0  0  0  0  0
  -18.6752   21.9122  -39.9223 C   0  0  0  0  0  0  0  0  0  0  0  0
  -19.2007   22.2756  -41.2388 C   0  0  0  0  0  0  0  0  0  0  0  0
  -19.3916   21.7429  -42.4317 C   0  0  0  0  0  0  0  0  0  0  0  0
  -20.0204   22.4282  -43.6759 C   0  0  0  0  0  0  0  0  0  0  0  0
  -19.0025   20.3687  -42.9467 C   0  0  0  0  0  0  0  0  0  0  0  0
  -19.8754   19.7276  -43.6877 O   0  0  0  0  0  0  0  0  0  0  0  0
  -17.8020   19.6055  -42.7670 N   0  0  0  0  0  0  0  0  0  0  0  0
  -17.0329   19.1540  -41.6461 C   0  0  0  0  0  0  0  0  0  0  0  0
  -15.7414   19.6131  -41.7331 C   0  0  0  0  0  0  0  0  0  0  0  0
  -14.6839   19.3110  -40.8174 C   0  0  0  0  0  0  0  0  0  0  0  0
  -13.5154   19.7711  -40.9560 O   0  0  0  0  0  0  0  0  0  0  0  0
  -17.3396   18.2813  -40.5086 C   0  0  0  0  0  0  0  0  0  0  0  0
  -18.5821   17.7925  -40.3410 O   0  0  0  0  0  0  0  0  0  0  0  0
  1  2  2  0
  2  3  1  0
  3  4  1  0
  4  5  1  0
  5  6  2  0
  6  7  1  0
  7  8  1  0
  8  9  1  1
  8 10  1  0
 10 11  1  0
 11 12  1  6
 12 13  1  0
 11 14  1  0
 14 15  1  1
 14 16  1  0
 16 17  1  1
 16 18  1  0
 18 19  2  0
 19 20  1  0
 19 21  1  0
 21 22  1  6
 22 23  1  0
 23 24  1  0
 23 25  2  0
 21 26  1  0
 26 27  1  6
 27 28  1  0
 26 29  1  0
 29 30  2  0
 30 31  1  0
 31 32  2  0
 32 33  1  0
 32 34  1  0
 34 35  2  0
 34 36  1  0
 36 37  1  0
 37 38  2  0
 38 39  1  0
 39 40  2  0
 37 41  1  0
 41 42  2  0
 39  5  1  0
 41  6  1  0
M  END
$$$$
