
     RDKit          3D

 30 32  0  0  0  0  0  0  0  0999 V2000
  -20.5275   37.4592  -25.8596 O   0  0  0  0  0  0  0  0  0  0  0  0
  -21.2713   37.4755  -26.9062 C   0  0  0  0  0  0  0  0  0  0  0  0
  -21.0576   38.4567  -27.8632 O   0  0  0  0  0  0  0  0  0  0  0  0
  -22.2927   36.4778  -27.0337 C   0  0  0  0  0  0  0  0  0  0  0  0
  -22.9558   36.4103  -28.2659 C   0  0  0  0  0  0  0  0  0  0  0  0
  -23.9103   35.4537  -28.4705 C   0  0  0  0  0  0  0  0  0  0  0  0
  -24.2404   34.5446  -27.4833 C   0  0  0  0  0  0  0  0  0  0  0  0
  -23.5729   34.6415  -26.2909 C   0  0  0  0  0  0  0  0  0  0  0  0
  -22.5866   35.6040  -26.0321 C   0  0  0  0  0  0  0  0  0  0  0  0
  -21.9995   35.6060  -24.7592 N   0  0  0  0  0  0  0  0  0  0  0  0
  -22.6067   35.5899  -23.5332 N   0  0  0  0  0  0  0  0  0  0  0  0
  -22.1969   36.1829  -22.4724 C   0  0  0  0  0  0  0  0  0  0  0  0
  -20.9560   36.9857  -22.5463 C   0  0  0  0  0  0  0  0  0  0  0  0
  -20.8804   38.1569  -23.2448 C   0  0  0  0  0  0  0  0  0  0  0  0
  -19.6530   38.8252  -23.2730 C   0  0  0  0  0  0  0  0  0  0  0  0
  -18.5296   38.3457  -22.6244 C   0  0  0  0  0  0  0  0  0  0  0  0
  -17.2357   39.0434  -22.6789 C   0  0  0  0  0  0  0  0  0  0  0  0
  -17.1573   40.2652  -22.2453 N   0  0  0  0  0  0  0  0  0  0  0  0
  -18.3090   41.0146  -21.9789 N   0  0  0  0  0  0  0  0  0  0  0  0
  -18.2183   42.3753  -21.6119 C   0  0  0  0  0  0  0  0  0  0  0  0
  -17.1679   42.7192  -20.7526 C   0  0  0  0  0  0  0  0  0  0  0  0
  -17.0238   44.0065  -20.3254 C   0  0  0  0  0  0  0  0  0  0  0  0
  -17.9414   44.9482  -20.7654 C   0  0  0  0  0  0  0  0  0  0  0  0
  -18.9707   44.6183  -21.6047 C   0  0  0  0  0  0  0  0  0  0  0  0
  -19.1228   43.2933  -22.0477 C   0  0  0  0  0  0  0  0  0  0  0  0
  -20.2151   42.9358  -22.9145 C   0  0  0  0  0  0  0  0  0  0  0  0
  -20.3437   41.8431  -23.4534 O   0  0  0  0  0  0  0  0  0  0  0  0
  -21.2037   43.8957  -23.1638 O   0  0  0  0  0  0  0  0  0  0  0  0
  -18.6275   37.1634  -21.9229 C   0  0  0  0  0  0  0  0  0  0  0  0
  -19.8308   36.5134  -21.8994 C   0  0  0  0  0  0  0  0  0  0  0  0
  1  2  2  0
  2  3  1  0
  2  4  1  0
  4  5  2  0
  5  6  1  0
  6  7  2  0
  7  8  1  0
  8  9  2  0
  9 10  1  0
 10 11  1  0
 11 12  2  0
 12 13  1  0
 13 14  2  0
 14 15  1  0
 15 16  2  0
 16 17  1  0
 17 18  2  0
 18 19  1  0
 19 20  1  0
 20 21  2  0
 21 22  1  0
 22 23  2  0
 23 24  1  0
 24 25  2  0
 25 26  1  0
 26 27  2  0
 26 28  1  0
 16 29  1  0
 29 30  2  0
  9  4  1  0
 30 13  1  0
 25 20  1  0
M  END
$$$$
