
     RDKit          3D

 23 25  0  0  0  0  0  0  0  0999 V2000
  -19.3230   19.3342  -30.5357 C   0  0  0  0  0  0  0  0  0  0  0  0
  -18.6366   18.0454  -30.8056 C   0  0  0  0  0  0  0  0  0  0  0  0
  -17.4894   18.0239  -31.2701 O   0  0  0  0  0  0  0  0  0  0  0  0
  -19.2897   16.8402  -30.5336 N   0  0  0  0  0  0  0  0  0  0  0  0
  -18.9444   15.5539  -31.0980 C   0  0  0  0  0  0  0  0  0  0  0  0
  -20.0968   14.6447  -30.8702 C   0  0  0  0  0  0  0  0  0  0  0  0
  -21.0900   14.9859  -29.9802 C   0  0  0  0  0  0  0  0  0  0  0  0
  -22.1789   14.1385  -29.7530 C   0  0  0  0  0  0  0  0  0  0  0  0
  -22.2423   12.9460  -30.4406 C   0  0  0  0  0  0  0  0  0  0  0  0
  -21.2679   12.5668  -31.3412 C   0  0  0  0  0  0  0  0  0  0  0  0
  -20.2212   13.4331  -31.5278 C   0  0  0  0  0  0  0  0  0  0  0  0
  -17.6583   15.0110  -30.6176 C   0  0  0  0  0  0  0  0  0  0  0  0
  -17.3842   14.6979  -29.3072 C   0  0  0  0  0  0  0  0  0  0  0  0
  -16.1509   14.1897  -28.9110 C   0  0  0  0  0  0  0  0  0  0  0  0
  -15.8150   13.7954  -27.2394 Cl  0  0  0  0  0  0  0  0  0  0  0  0
  -15.1460   13.9791  -29.8311 C   0  0  0  0  0  0  0  0  0  0  0  0
  -13.9097   13.4703  -29.4384 C   0  0  0  0  0  0  0  0  0  0  0  0
  -12.9402   13.2764  -30.3825 C   0  0  0  0  0  0  0  0  0  0  0  0
  -13.2192   13.5912  -31.6924 C   0  0  0  0  0  0  0  0  0  0  0  0
  -14.4188   14.0808  -32.0490 N   0  0  0  0  0  0  0  0  0  0  0  0
  -15.4086   14.2898  -31.1518 C   0  0  0  0  0  0  0  0  0  0  0  0
  -16.6367   14.7930  -31.5288 C   0  0  0  0  0  0  0  0  0  0  0  0
  -16.8703   15.0959  -32.8660 O   0  0  0  0  0  0  0  0  0  0  0  0
  1  2  1  0
  2  3  2  0
  2  4  1  0
  4  5  1  0
  5  6  1  0
  6  7  2  0
  7  8  1  0
  8  9  2  0
  9 10  1  0
 10 11  2  0
  5 12  1  0
 12 13  2  0
 13 14  1  0
 14 15  1  0
 14 16  2  0
 16 17  1  0
 17 18  2  0
 18 19  1  0
 19 20  2  0
 20 21  1  0
 21 22  2  0
 22 23  1  0
 11  6  1  0
 22 12  1  0
 21 16  1  0
M  END
$$$$
