
     RDKit          3D

 28 28  0  0  0  0  0  0  0  0999 V2000
  -11.8239   44.7216  -18.4128 C   0  0  0  0  0  0  0  0  0  0  0  0
  -12.8920   45.3286  -17.5740 C   0  0  0  0  0  0  0  0  0  0  0  0
  -14.2855   44.8964  -17.7995 C   0  0  0  0  0  0  0  0  0  0  0  0
  -14.8893   45.1310  -19.1372 C   0  0  2  0  0  0  0  0  0  0  0  0
  -16.3417   44.6154  -19.0487 C   0  0  0  0  0  0  0  0  0  0  0  0
  -16.1893   43.2572  -19.6238 C   0  0  1  0  0  0  0  0  0  0  0  0
  -17.3878   42.4851  -19.8535 C   0  0  0  0  0  0  0  0  0  0  0  0
  -18.1105   42.2170  -18.8356 O   0  0  0  0  0  0  0  0  0  0  0  0
  -17.8539   41.9890  -21.0894 N   0  0  0  0  0  0  0  0  0  0  0  0
  -19.0759   41.2218  -21.2098 C   0  0  2  0  0  0  0  0  0  0  0  0
  -18.7137   39.8270  -21.5986 C   0  0  2  0  0  0  0  0  0  0  0  0
  -17.8145   39.2434  -20.4949 C   0  0  0  0  0  0  0  0  0  0  0  0
  -17.6536   39.8176  -23.0560 Cl  0  0  0  0  0  0  0  0  0  0  0  0
  -20.1209   41.8708  -22.0613 C   0  0  1  0  0  0  0  0  0  0  0  0
  -20.4977   43.0998  -21.5720 O   0  0  0  0  0  0  0  0  0  0  0  0
  -21.6467   43.6300  -22.1046 C   0  0  2  0  0  0  0  0  0  0  0  0
  -22.9440   43.7650  -20.8573 S   0  0  0  0  0  0  0  0  0  0  0  0
  -23.5373   42.1922  -20.2458 C   0  0  0  0  0  0  0  0  0  0  0  0
  -22.0942   42.9959  -23.3767 C   0  0  2  0  0  0  0  0  0  0  0  0
  -22.9390   41.9083  -23.2046 O   0  0  0  0  0  0  0  0  0  0  0  0
  -20.9104   42.6836  -24.2336 C   0  0  1  0  0  0  0  0  0  0  0  0
  -20.4930   43.8803  -24.8413 O   0  0  0  0  0  0  0  0  0  0  0  0
  -19.7853   41.9933  -23.5069 C   0  0  1  0  0  0  0  0  0  0  0  0
  -18.6297   42.7344  -23.7440 O   0  0  0  0  0  0  0  0  0  0  0  0
  -15.4207   43.5502  -20.8194 N   0  0  0  0  0  0  0  0  0  0  0  0
  -16.0215   44.5554  -21.6482 C   0  0  0  0  0  0  0  0  0  0  0  0
  -14.2623   44.2152  -20.1598 C   0  0  0  0  0  0  0  0  0  0  0  0
  -17.2060   43.1881  -20.6567 Cl  0  0  0  0  0  0  0  0  0  0  0  0
  1  2  1  0
  2  3  1  0
  4  3  1  1
  4  5  1  0
  5  6  1  0
  6  7  1  6
  7  8  2  0
  7  9  1  0
 10  9  1  6
 10 11  1  0
 11 12  1  1
 11 13  1  0
 10 14  1  0
 14 15  1  1
 15 16  1  0
 16 17  1  1
 17 18  1  0
 16 19  1  0
 19 20  1  1
 19 21  1  0
 21 22  1  1
 21 23  1  0
 23 24  1  1
  6 25  1  0
 25 26  1  0
 25 27  1  0
 27  4  1  0
 23 14  1  0
M  END
$$$$
