
     RDKit          3D

 62 68  0  0  0  0  0  0  0  0999 V2000
  -20.4596   19.1416  -28.5678 C   0  0  0  0  0  0  0  0  0  0  0  0
  -20.0651   20.4102  -29.1753 C   0  0  0  0  0  0  0  0  0  0  0  0
  -19.2638   21.2414  -28.6601 O   0  0  0  0  0  0  0  0  0  0  0  0
  -20.5860   20.7580  -30.4006 O   0  0  0  0  0  0  0  0  0  0  0  0
  -20.0637   20.5976  -31.6485 C   0  0  1  0  0  0  0  0  0  0  0  0
  -19.2768   19.2488  -31.7603 C   0  0  0  0  0  0  0  0  0  0  0  0
  -18.7458   19.2070  -30.6983 O   0  0  0  0  0  0  0  0  0  0  0  0
  -18.9474   18.0924  -32.5751 C   0  0  2  0  0  0  0  0  0  0  0  0
  -19.7508   16.9538  -31.9867 C   0  0  0  0  0  0  0  0  0  0  0  0
  -17.4953   17.7651  -32.1025 C   0  0  1  0  0  0  0  0  0  0  0  0
  -17.3186   17.7811  -30.7590 O   0  0  0  0  0  0  0  0  0  0  0  0
  -17.0190   16.4230  -32.5329 C   0  0  0  0  0  0  0  0  0  0  0  0
  -17.4419   15.9776  -33.8525 C   0  0  1  0  0  0  0  0  0  0  0  0
  -18.4598   15.0470  -33.8457 O   0  0  0  0  0  0  0  0  0  0  0  0
  -19.0256   15.7743  -34.9270 C   0  0  0  0  0  0  0  0  0  0  0  0
  -18.1694   16.9411  -34.7046 C   0  0  2  0  0  0  0  0  0  0  0  0
  -17.2665   17.3592  -35.7211 O   0  0  0  0  0  0  0  0  0  0  0  0
  -17.5346   17.7735  -36.9686 C   0  0  0  0  0  0  0  0  0  0  0  0
  -16.9980   19.0237  -37.5526 C   0  0  0  0  0  0  0  0  0  0  0  0
  -18.2744   17.0660  -37.6701 O   0  0  0  0  0  0  0  0  0  0  0  0
  -18.7796   18.1502  -34.0199 C   0  0  1  0  0  0  0  0  0  0  0  0
  -19.7413   18.6529  -35.0305 C   0  0  2  0  0  0  0  0  0  0  0  0
  -19.0592   19.1012  -36.2125 O   0  0  0  0  0  0  0  0  0  0  0  0
  -19.5268   18.8586  -37.4849 C   0  0  0  0  0  0  0  0  0  0  0  0
  -18.8555   19.2799  -38.4352 O   0  0  0  0  0  0  0  0  0  0  0  0
  -20.7624   18.1340  -37.6810 C   0  0  0  0  0  0  0  0  0  0  0  0
  -21.7822   18.2723  -36.7637 C   0  0  0  0  0  0  0  0  0  0  0  0
  -22.9837   17.5730  -36.9331 C   0  0  0  0  0  0  0  0  0  0  0  0
  -23.1487   16.7418  -38.0206 C   0  0  0  0  0  0  0  0  0  0  0  0
  -22.1410   16.5989  -38.9366 C   0  0  0  0  0  0  0  0  0  0  0  0
  -20.9478   17.3032  -38.7555 C   0  0  0  0  0  0  0  0  0  0  0  0
  -20.6853   19.6511  -34.6434 C   0  0  2  0  0  0  0  0  0  0  0  0
  -21.1989   18.8504  -33.5292 O   0  0  0  0  0  0  0  0  0  0  0  0
  -22.0217   19.9436  -35.1874 C   0  0  0  0  0  0  0  0  0  0  0  0
  -22.8690   20.3895  -33.9833 C   0  0  2  0  0  0  0  0  0  0  0  0
  -24.0506   20.9974  -34.2110 O   0  0  0  0  0  0  0  0  0  0  0  0
  -24.3112   22.3525  -34.1365 C   0  0  0  0  0  0  0  0  0  0  0  0
  -23.4433   23.0224  -33.4790 O   0  0  0  0  0  0  0  0  0  0  0  0
  -25.4501   23.0556  -34.7228 C   0  0  2  0  0  0  0  0  0  0  0  0
  -26.4983   22.1415  -34.9749 O   0  0  0  0  0  0  0  0  0  0  0  0
  -25.1006   23.7666  -35.9659 C   0  0  1  0  0  0  0  0  0  0  0  0
  -24.8184   22.8983  -37.1078 N   0  0  0  0  0  0  0  0  0  0  0  0
  -23.6116   23.0346  -37.8480 C   0  0  0  0  0  0  0  0  0  0  0  0
  -22.8397   23.9636  -37.4249 O   0  0  0  0  0  0  0  0  0  0  0  0
  -23.2239   22.2395  -38.9888 C   0  0  0  0  0  0  0  0  0  0  0  0
  -22.5912   21.0047  -38.7934 C   0  0  0  0  0  0  0  0  0  0  0  0
  -22.2281   20.1895  -39.8460 C   0  0  0  0  0  0  0  0  0  0  0  0
  -22.4842   20.5767  -41.1430 C   0  0  0  0  0  0  0  0  0  0  0  0
  -23.1069   21.7892  -41.3554 C   0  0  0  0  0  0  0  0  0  0  0  0
  -23.4689   22.6054  -40.2879 C   0  0  0  0  0  0  0  0  0  0  0  0
  -26.2394   24.6292  -36.4565 C   0  0  0  0  0  0  0  0  0  0  0  0
  -26.1034   25.9876  -36.3475 C   0  0  0  0  0  0  0  0  0  0  0  0
  -27.0987   26.8608  -36.7961 C   0  0  0  0  0  0  0  0  0  0  0  0
  -28.2384   26.3756  -37.3570 C   0  0  0  0  0  0  0  0  0  0  0  0
  -28.3608   24.9862  -37.4604 C   0  0  0  0  0  0  0  0  0  0  0  0
  -27.3745   24.1270  -37.0162 C   0  0  0  0  0  0  0  0  0  0  0  0
  -22.0442   20.8855  -32.8159 C   0  0  0  0  0  0  0  0  0  0  0  0
  -22.6762   21.3287  -31.5867 C   0  0  0  0  0  0  0  0  0  0  0  0
  -20.7293   20.8826  -32.8469 C   0  0  0  0  0  0  0  0  0  0  0  0
  -20.1852   21.0102  -34.2331 C   0  0  0  0  0  0  0  0  0  0  0  0
  -18.7235   21.2715  -34.2678 C   0  0  0  0  0  0  0  0  0  0  0  0
  -20.8012   22.1484  -35.0171 C   0  0  0  0  0  0  0  0  0  0  0  0
  1  2  1  0
  2  3  2  0
  2  4  1  0
  5  4  1  1
  5  6  1  0
  6  7  2  0
  6  8  1  0
  8  9  1  6
  8 10  1  0
 10 11  1  1
 10 12  1  0
 13 12  1  1
 13 14  1  0
 14 15  1  0
 15 16  1  0
 16 17  1  6
 17 18  1  0
 18 19  1  0
 18 20  2  0
 16 21  1  0
 21 22  1  6
 22 23  1  6
 23 24  1  0
 24 25  2  0
 24 26  1  0
 26 27  2  0
 27 28  1  0
 28 29  2  0
 29 30  1  0
 30 31  2  0
 22 32  1  0
 32 33  1  1
 32 34  1  0
 34 35  1  0
 35 36  1  6
 36 37  1  0
 37 38  2  0
 37 39  1  0
 39 40  1  6
 39 41  1  0
 41 42  1  6
 42 43  1  0
 43 44  2  0
 43 45  1  0
 45 46  2  0
 46 47  1  0
 47 48  2  0
 48 49  1  0
 49 50  2  0
 41 51  1  0
 51 52  2  0
 52 53  1  0
 53 54  2  0
 54 55  1  0
 55 56  2  0
 35 57  1  0
 57 58  1  0
 57 59  2  0
 59 60  1  0
 60 61  1  0
 60 62  1  0
 59  5  1  0
 21  8  1  0
 31 26  1  0
 60 32  1  0
 16 13  1  0
 50 45  1  0
 56 51  1  0
M  END
$$$$
