
     RDKit          3D

 42 46  0  0  0  0  0  0  0  0999 V2000
    0.0948    6.0229  -38.2629 C   0  0  0  0  0  0  0  0  0  0  0  0
   -0.3714    6.6595  -39.5307 C   0  0  0  0  0  0  0  0  0  0  0  0
   -0.9605    5.9146  -40.5144 C   0  0  0  0  0  0  0  0  0  0  0  0
   -1.3929    6.4966  -41.7030 C   0  0  0  0  0  0  0  0  0  0  0  0
   -1.2372    7.8526  -41.9213 C   0  0  0  0  0  0  0  0  0  0  0  0
   -1.6745    8.4843  -43.1251 N   0  0  0  0  0  0  0  0  0  0  0  0
   -2.5888    9.5615  -43.0453 C   0  0  0  0  0  0  0  0  0  0  0  0
   -2.6882   10.1927  -41.9369 O   0  0  0  0  0  0  0  0  0  0  0  0
   -3.4159    9.9725  -44.1731 C   0  0  0  0  0  0  0  0  0  0  0  0
   -2.8827   10.7855  -45.1449 C   0  0  0  0  0  0  0  0  0  0  0  0
   -3.6901   11.1920  -46.1811 C   0  0  0  0  0  0  0  0  0  0  0  0
   -5.0151   10.8115  -46.2757 C   0  0  0  0  0  0  0  0  0  0  0  0
   -5.8245   11.3549  -47.4201 C   0  0  0  0  0  0  0  0  0  0  0  0
   -5.7939   12.7820  -47.2711 N   0  0  0  0  0  0  0  0  0  0  0  0
   -4.7332   13.3721  -48.0037 C   0  0  0  0  0  0  0  0  0  0  0  0
   -4.4603   14.6987  -47.3136 C   0  0  0  0  0  0  0  0  0  0  0  0
   -5.2831   14.6318  -46.0561 C   0  0  2  0  0  0  0  0  0  0  0  0
   -4.6871   15.2178  -44.9138 N   0  0  0  0  0  0  0  0  0  0  0  0
   -4.9054   14.5796  -43.6636 C   0  0  0  0  0  0  0  0  0  0  0  0
   -3.3598   15.6521  -45.1728 C   0  0  0  0  0  0  0  0  0  0  0  0
   -5.6105   13.1493  -45.8898 C   0  0  0  0  0  0  0  0  0  0  0  0
   -5.5547   10.0017  -45.3157 C   0  0  0  0  0  0  0  0  0  0  0  0
   -6.9684    9.5891  -45.3921 C   0  0  0  0  0  0  0  0  0  0  0  0
   -7.1988    8.5514  -46.2467 F   0  0  0  0  0  0  0  0  0  0  0  0
   -7.7793   10.6962  -45.6905 F   0  0  0  0  0  0  0  0  0  0  0  0
   -7.3764    9.1877  -44.1200 F   0  0  0  0  0  0  0  0  0  0  0  0
   -4.7242    9.5975  -44.2718 C   0  0  0  0  0  0  0  0  0  0  0  0
   -0.6424    8.5899  -40.9188 C   0  0  0  0  0  0  0  0  0  0  0  0
   -0.2092    8.0201  -39.7342 C   0  0  0  0  0  0  0  0  0  0  0  0
    0.3866    8.7507  -38.6733 N   0  0  0  0  0  0  0  0  0  0  0  0
    1.6813    9.2638  -38.7986 C   0  0  0  0  0  0  0  0  0  0  0  0
    2.2833    9.1650  -39.9947 N   0  0  0  0  0  0  0  0  0  0  0  0
    3.5165    9.6555  -40.1529 C   0  0  0  0  0  0  0  0  0  0  0  0
    4.1945   10.2731  -39.0912 C   0  0  0  0  0  0  0  0  0  0  0  0
    3.5633   10.3610  -37.8912 C   0  0  0  0  0  0  0  0  0  0  0  0
    4.1732   10.9711  -36.7452 C   0  0  0  0  0  0  0  0  0  0  0  0
    3.7750   10.6576  -35.4783 C   0  0  0  0  0  0  0  0  0  0  0  0
    4.3664   11.2449  -34.4100 N   0  0  0  0  0  0  0  0  0  0  0  0
    5.3405   12.1297  -34.6254 C   0  0  0  0  0  0  0  0  0  0  0  0
    5.7571   12.4605  -35.8524 N   0  0  0  0  0  0  0  0  0  0  0  0
    5.1874   11.8940  -36.9212 C   0  0  0  0  0  0  0  0  0  0  0  0
    2.3174    9.8457  -37.7952 N   0  0  0  0  0  0  0  0  0  0  0  0
  1  2  1  0
  2  3  2  0
  3  4  1  0
  4  5  2  0
  5  6  1  0
  6  7  1  0
  7  8  2  0
  7  9  1  0
  9 10  2  0
 10 11  1  0
 11 12  2  0
 12 13  1  0
 13 14  1  0
 14 15  1  0
 15 16  1  0
 16 17  1  0
 17 18  1  1
 18 19  1  0
 18 20  1  0
 17 21  1  0
 12 22  1  0
 22 23  1  0
 23 24  1  0
 23 25  1  0
 23 26  1  0
 22 27  2  0
  5 28  1  0
 28 29  2  0
 29 30  1  0
 30 31  1  0
 31 32  2  0
 32 33  1  0
 33 34  2  0
 34 35  1  0
 35 36  1  0
 36 37  2  0
 37 38  1  0
 38 39  2  0
 39 40  1  0
 40 41  2  0
 35 42  2  0
 29  2  1  0
 42 31  1  0
 27  9  1  0
 41 36  1  0
 21 14  1  0
M  END
$$$$
