
     RDKit          3D

 34 38  0  0  0  0  0  0  0  0999 V2000
  -24.1788   37.7330  -24.0640 C   0  0  0  0  0  0  0  0  0  0  0  0
  -22.7611   37.8490  -23.6652 C   0  0  0  0  0  0  0  0  0  0  0  0
  -21.8460   36.4818  -22.9215 S   0  0  0  0  0  0  0  0  0  0  0  0
  -20.3419   37.3815  -22.7609 C   0  0  0  0  0  0  0  0  0  0  0  0
  -20.6003   38.6424  -23.2752 C   0  0  0  0  0  0  0  0  0  0  0  0
  -21.8491   38.8659  -23.7279 C   0  0  0  0  0  0  0  0  0  0  0  0
  -22.3621   40.2442  -24.1765 C   0  0  0  0  0  0  0  0  0  0  0  0
  -19.5277   39.6526  -23.3811 C   0  0  0  0  0  0  0  0  0  0  0  0
  -19.4401   40.5225  -24.5110 C   0  0  0  0  0  0  0  0  0  0  0  0
  -20.3574   40.3967  -25.5331 C   0  0  0  0  0  0  0  0  0  0  0  0
  -20.4778   41.2752  -26.5781 C   0  0  0  0  0  0  0  0  0  0  0  0
  -19.6379   42.3579  -26.6270 C   0  0  0  0  0  0  0  0  0  0  0  0
  -19.7469   43.5093  -27.9385 Cl  0  0  0  0  0  0  0  0  0  0  0  0
  -18.6966   42.5239  -25.6134 C   0  0  0  0  0  0  0  0  0  0  0  0
  -18.6119   41.5991  -24.5640 C   0  0  0  0  0  0  0  0  0  0  0  0
  -18.5895   39.8044  -22.4601 N   0  0  0  0  0  0  0  0  0  0  0  0
  -18.3537   39.0959  -21.2167 C   0  0  1  0  0  0  0  0  0  0  0  0
  -19.5456   39.3548  -20.3292 C   0  0  0  0  0  0  0  0  0  0  0  0
  -19.2726   40.4215  -19.3340 C   0  0  0  0  0  0  0  0  0  0  0  0
  -18.6262   40.1592  -18.2751 O   0  0  0  0  0  0  0  0  0  0  0  0
  -19.7544   41.7233  -19.6086 N   0  0  0  0  0  0  0  0  0  0  0  0
  -18.8042   42.7632  -19.7843 C   0  0  0  0  0  0  0  0  0  0  0  0
  -17.6004   42.6757  -19.1254 C   0  0  0  0  0  0  0  0  0  0  0  0
  -16.6849   43.7153  -19.3179 C   0  0  0  0  0  0  0  0  0  0  0  0
  -17.0070   44.7789  -20.1463 C   0  0  0  0  0  0  0  0  0  0  0  0
  -16.1039   45.8189  -20.3452 O   0  0  0  0  0  0  0  0  0  0  0  0
  -18.2200   44.8616  -20.8069 C   0  0  0  0  0  0  0  0  0  0  0  0
  -19.1282   43.8176  -20.6080 C   0  0  0  0  0  0  0  0  0  0  0  0
  -18.2736   37.6236  -21.4228 C   0  0  0  0  0  0  0  0  0  0  0  0
  -17.3598   36.7479  -20.9826 N   0  0  0  0  0  0  0  0  0  0  0  0
  -17.7146   35.5074  -21.4066 N   0  0  0  0  0  0  0  0  0  0  0  0
  -18.8553   35.5866  -22.1186 C   0  0  0  0  0  0  0  0  0  0  0  0
  -19.6225   34.4976  -22.7657 C   0  0  0  0  0  0  0  0  0  0  0  0
  -19.1757   36.8846  -22.1153 N   0  0  0  0  0  0  0  0  0  0  0  0
  1  2  1  0
  2  3  1  0
  3  4  1  0
  4  5  2  0
  5  6  1  0
  6  7  1  0
  5  8  1  0
  8  9  1  0
  9 10  2  0
 10 11  1  0
 11 12  2  0
 12 13  1  0
 12 14  1  0
 14 15  2  0
  8 16  2  0
 16 17  1  0
 17 18  1  1
 18 19  1  0
 19 20  2  0
 19 21  1  0
 21 22  1  0
 22 23  2  0
 23 24  1  0
 24 25  2  0
 25 26  1  0
 25 27  1  0
 27 28  2  0
 17 29  1  0
 29 30  2  0
 30 31  1  0
 31 32  2  0
 32 33  1  0
 32 34  1  0
  6  2  2  0
 15  9  1  0
 28 22  1  0
 34 29  1  0
 34  4  1  0
M  END
$$$$
