
     RDKit          3D

 29 31  0  0  0  0  0  0  0  0999 V2000
  -23.9559   36.7532  -22.8540 C   0  0  0  0  0  0  0  0  0  0  0  0
  -23.0915   37.5928  -23.7481 C   0  0  0  0  0  0  0  0  0  0  0  0
  -22.0084   36.8139  -24.4353 C   0  0  0  0  0  0  0  0  0  0  0  0
  -20.9556   36.3686  -23.5299 N   0  0  0  0  0  0  0  0  0  0  0  0
  -20.2087   37.2172  -22.8593 N   0  0  0  0  0  0  0  0  0  0  0  0
  -19.2058   36.8517  -22.0056 C   0  0  0  0  0  0  0  0  0  0  0  0
  -18.4303   37.9000  -21.3261 C   0  0  0  0  0  0  0  0  0  0  0  0
  -18.0282   37.6921  -20.1233 O   0  0  0  0  0  0  0  0  0  0  0  0
  -18.0755   39.1378  -21.8993 N   0  0  0  0  0  0  0  0  0  0  0  0
  -18.2622   40.4058  -21.2225 C   0  0  0  0  0  0  0  0  0  0  0  0
  -18.0931   41.5536  -22.1809 C   0  0  0  0  0  0  0  0  0  0  0  0
  -17.5206   42.7379  -21.4763 C   0  0  0  0  0  0  0  0  0  0  0  0
  -17.4122   43.9230  -22.1814 C   0  0  0  0  0  0  0  0  0  0  0  0
  -16.8844   44.9999  -21.5187 C   0  0  0  0  0  0  0  0  0  0  0  0
  -16.4617   44.9618  -20.2022 C   0  0  0  0  0  0  0  0  0  0  0  0
  -15.7972   46.3977  -19.4381 S   0  0  0  0  0  6  0  0  0  0  0  0
  -16.7474   47.7929  -19.8036 N   0  0  0  0  0  0  0  0  0  0  0  0
  -14.3822   46.6287  -19.9346 O   0  0  0  0  0  0  0  0  0  0  0  0
  -15.7813   46.2368  -17.9340 O   0  0  0  0  0  0  0  0  0  0  0  0
  -16.5839   43.7669  -19.5307 C   0  0  0  0  0  0  0  0  0  0  0  0
  -17.1175   42.6418  -20.1688 C   0  0  0  0  0  0  0  0  0  0  0  0
  -18.9652   35.5097  -21.8450 C   0  0  0  0  0  0  0  0  0  0  0  0
  -17.9508   35.0486  -21.0341 C   0  0  0  0  0  0  0  0  0  0  0  0
  -17.7383   33.6811  -20.9337 C   0  0  0  0  0  0  0  0  0  0  0  0
  -18.5256   32.7974  -21.6333 C   0  0  0  0  0  0  0  0  0  0  0  0
  -19.5440   33.2726  -22.4512 C   0  0  0  0  0  0  0  0  0  0  0  0
  -19.7590   34.6206  -22.5557 C   0  0  0  0  0  0  0  0  0  0  0  0
  -20.7677   35.0522  -23.4088 C   0  0  0  0  0  0  0  0  0  0  0  0
  -21.4820   34.2313  -24.0462 O   0  0  0  0  0  0  0  0  0  0  0  0
  1  2  1  0
  2  3  1  0
  3  4  1  0
  4  5  1  0
  5  6  2  0
  6  7  1  0
  7  8  2  0
  7  9  1  0
  9 10  1  0
 10 11  1  0
 11 12  1  0
 12 13  2  0
 13 14  1  0
 14 15  2  0
 15 16  1  0
 16 17  1  0
 16 18  2  0
 16 19  2  0
 15 20  1  0
 20 21  2  0
  6 22  1  0
 22 23  2  0
 23 24  1  0
 24 25  2  0
 25 26  1  0
 26 27  2  0
 27 28  1  0
 28 29  2  0
 28  4  1  0
 21 12  1  0
 27 22  1  0
M  END
$$$$
