
     RDKit          3D

 20 21  0  0  0  0  0  0  0  0999 V2000
  -17.0849   42.4960  -19.9550 C   0  0  0  0  0  0  0  0  0  0  0  0
  -17.6310   41.3009  -20.6656 C   0  0  0  0  0  0  0  0  0  0  0  0
  -18.3212   40.2910  -20.0357 C   0  0  0  0  0  0  0  0  0  0  0  0
  -18.8068   39.2011  -20.7457 C   0  0  0  0  0  0  0  0  0  0  0  0
  -18.6030   39.1135  -22.1039 C   0  0  0  0  0  0  0  0  0  0  0  0
  -19.0902   38.0083  -22.8571 N   0  0  0  0  0  0  0  0  0  0  0  0
  -19.9942   37.0794  -22.2744 C   0  0  0  0  0  0  0  0  0  0  0  0
  -21.3237   37.4061  -22.0348 C   0  0  0  0  0  0  0  0  0  0  0  0
  -21.7510   38.6637  -22.3746 F   0  0  0  0  0  0  0  0  0  0  0  0
  -22.1955   36.4946  -21.4694 C   0  0  0  0  0  0  0  0  0  0  0  0
  -21.7125   35.2427  -21.1456 C   0  0  0  0  0  0  0  0  0  0  0  0
  -20.3941   34.8710  -21.3659 C   0  0  0  0  0  0  0  0  0  0  0  0
  -19.5542   35.8192  -21.9360 C   0  0  0  0  0  0  0  0  0  0  0  0
  -17.8664   35.4228  -22.2474 Cl  0  0  0  0  0  0  0  0  0  0  0  0
  -17.9149   40.1218  -22.7264 C   0  0  0  0  0  0  0  0  0  0  0  0
  -17.6644   40.0679  -24.2081 C   0  0  0  0  0  0  0  0  0  0  0  0
  -18.9252   40.3948  -24.9372 C   0  0  0  0  0  0  0  0  0  0  0  0
  -19.7108   39.5219  -25.3562 O   0  0  0  0  0  0  0  0  0  0  0  0
  -19.2239   41.7215  -25.1503 O   0  0  0  0  0  0  0  0  0  0  0  0
  -17.4219   41.2206  -22.0282 C   0  0  0  0  0  0  0  0  0  0  0  0
  1  2  1  0
  2  3  2  0
  3  4  1  0
  4  5  2  0
  5  6  1  0
  6  7  1  0
  7  8  2  0
  8  9  1  0
  8 10  1  0
 10 11  2  0
 11 12  1  0
 12 13  2  0
 13 14  1  0
  5 15  1  0
 15 16  1  0
 16 17  1  0
 17 18  2  0
 17 19  1  0
 15 20  2  0
 20  2  1  0
 13  7  1  0
M  END
$$$$
