
     RDKit          3D

 19 21  0  0  0  0  0  0  0  0999 V2000
  -17.9582   38.2130  -23.3632 N   0  0  0  0  0  0  0  0  0  0  0  0
  -18.0873   39.3071  -22.9903 C   0  0  0  0  0  0  0  0  0  0  0  0
  -18.2228   40.6703  -22.5270 C   0  0  0  0  0  0  0  0  0  0  0  0
  -19.2768   41.4692  -22.9209 C   0  0  0  0  0  0  0  0  0  0  0  0
  -19.4120   42.7714  -22.4822 C   0  0  0  0  0  0  0  0  0  0  0  0
  -18.4581   43.3064  -21.6128 C   0  0  0  0  0  0  0  0  0  0  0  0
  -17.4040   42.5369  -21.2068 C   0  0  0  0  0  0  0  0  0  0  0  0
  -16.3985   43.0806  -20.2985 C   0  0  0  0  0  0  0  0  0  0  0  0
  -16.4473   44.2779  -19.6695 N   0  0  0  0  0  0  0  0  0  0  0  0
  -15.3433   44.4314  -18.9162 C   0  0  0  0  0  0  0  0  0  0  0  0
  -14.9862   45.5648  -18.0764 C   0  0  0  0  0  0  0  0  0  0  0  0
  -13.7069   45.7034  -17.5797 C   0  0  0  0  0  0  0  0  0  0  0  0
  -13.4220   46.7950  -16.7897 C   0  0  0  0  0  0  0  0  0  0  0  0
  -14.4253   47.7049  -16.5268 C   0  0  0  0  0  0  0  0  0  0  0  0
  -15.6663   47.5571  -17.0172 N   0  0  0  0  0  0  0  0  0  0  0  0
  -15.9522   46.5053  -17.7820 C   0  0  0  0  0  0  0  0  0  0  0  0
  -14.6243   43.3112  -19.0967 N   0  0  0  0  0  0  0  0  0  0  0  0
  -15.2771   42.5309  -19.9214 O   0  0  0  0  0  0  0  0  0  0  0  0
  -17.3028   41.2457  -21.6642 C   0  0  0  0  0  0  0  0  0  0  0  0
  1  2  3  0
  2  3  1  0
  3  4  2  0
  4  5  1  0
  5  6  2  0
  6  7  1  0
  7  8  1  0
  8  9  2  0
  9 10  1  0
 10 11  1  0
 11 12  2  0
 12 13  1  0
 13 14  2  0
 14 15  1  0
 15 16  2  0
 10 17  2  0
 17 18  1  0
  7 19  2  0
 19  3  1  0
 18  8  1  0
 16 11  1  0
M  END
$$$$
