
     RDKit          3D

 20 20  0  0  0  0  0  0  0  0999 V2000
  -19.3010   30.7886  -21.3986 C   0  0  0  0  0  0  0  0  0  0  0  0
  -20.0847   32.0262  -21.2582 C   0  0  0  0  0  0  0  0  0  0  0  0
  -21.0845   32.1137  -20.3186 C   0  0  0  0  0  0  0  0  0  0  0  0
  -21.8247   33.2571  -20.1729 C   0  0  0  0  0  0  0  0  0  0  0  0
  -21.5534   34.3398  -20.9922 C   0  0  0  0  0  0  0  0  0  0  0  0
  -22.5378   35.7688  -20.7519 Cl  0  0  0  0  0  0  0  0  0  0  0  0
  -20.5625   34.2908  -21.9427 C   0  0  0  0  0  0  0  0  0  0  0  0
  -20.3033   35.4462  -22.7872 N   0  0  0  0  0  0  0  0  0  0  0  0
  -19.3582   36.4075  -22.3389 C   0  0  0  0  0  0  0  0  0  0  0  0
  -18.7267   36.1841  -21.1003 C   0  0  0  0  0  0  0  0  0  0  0  0
  -17.8015   37.0576  -20.5884 C   0  0  0  0  0  0  0  0  0  0  0  0
  -17.5085   38.1715  -21.3343 C   0  0  0  0  0  0  0  0  0  0  0  0
  -18.1151   38.4031  -22.5425 C   0  0  0  0  0  0  0  0  0  0  0  0
  -19.0685   37.5143  -23.0825 C   0  0  0  0  0  0  0  0  0  0  0  0
  -19.6865   37.7788  -24.3442 C   0  0  0  0  0  0  0  0  0  0  0  0
  -19.3124   38.8699  -24.9376 O   0  0  0  0  0  0  0  0  0  0  0  0
  -20.6140   37.0669  -25.0353 O   0  0  0  0  0  1  0  0  0  0  0  0
  -19.8442   33.1224  -22.0540 C   0  0  0  0  0  0  0  0  0  0  0  0
  -18.5617   33.0121  -23.2604 Cl  0  0  0  0  0  0  0  0  0  0  0  0
  -19.6148   34.9411  -21.7766 Na  0  0  0  0  0 15  0  0  0  0  0  0
  1  2  1  0
  2  3  2  0
  3  4  1  0
  4  5  2  0
  5  6  1  0
  5  7  1  0
  7  8  1  0
  8  9  1  0
  9 10  2  0
 10 11  1  0
 11 12  2  0
 12 13  1  0
 13 14  2  0
 14 15  1  0
 15 16  2  0
 15 17  1  0
  7 18  2  0
 18 19  1  0
 18  2  1  0
 14  9  1  0
M  CHG  2  17  -1  20   1
M  END
$$$$
