
     RDKit          3D

 32 35  0  0  0  0  0  0  0  0999 V2000
  -23.4421   43.1863  -27.4684 C   0  0  0  0  0  0  0  0  0  0  0  0
  -22.5489   42.1905  -28.0770 N   0  0  0  0  0  0  0  0  0  0  0  0
  -21.4117   42.0483  -27.2167 C   0  0  0  0  0  0  0  0  0  0  0  0
  -20.5749   40.8912  -27.6702 C   0  0  0  0  0  0  0  0  0  0  0  0
  -21.3182   39.6715  -27.7002 N   0  0  0  0  0  0  0  0  0  0  0  0
  -20.6023   38.3681  -26.8805 S   0  0  0  0  0  6  0  0  0  0  0  0
  -21.5558   37.1871  -26.9847 O   0  0  0  0  0  0  0  0  0  0  0  0
  -19.3722   37.9469  -27.6733 O   0  0  0  0  0  0  0  0  0  0  0  0
  -20.1941   38.7074  -25.2319 C   0  0  0  0  0  0  0  0  0  0  0  0
  -18.8997   38.9585  -24.8538 C   0  0  0  0  0  0  0  0  0  0  0  0
  -18.6219   39.2265  -23.5143 C   0  0  0  0  0  0  0  0  0  0  0  0
  -19.5927   39.2498  -22.5540 C   0  0  0  0  0  0  0  0  0  0  0  0
  -19.3438   39.5255  -21.1489 C   0  0  0  0  0  0  0  0  0  0  0  0
  -19.8993   38.7633  -20.1519 C   0  0  0  0  0  0  0  0  0  0  0  0
  -19.6761   39.0074  -18.8304 N   0  0  0  0  0  0  0  0  0  0  0  0
  -18.8780   40.0384  -18.4929 C   0  0  0  0  0  0  0  0  0  0  0  0
  -18.6151   40.3333  -17.1282 N   0  0  0  0  0  0  0  0  0  0  0  0
  -18.3010   40.8279  -19.4620 C   0  0  0  0  0  0  0  0  0  0  0  0
  -17.4490   41.9279  -19.0447 C   0  0  0  0  0  0  0  0  0  0  0  0
  -16.8327   41.8731  -17.9531 O   0  0  0  0  0  0  0  0  0  0  0  0
  -17.2624   43.1035  -19.8215 N   0  0  0  0  0  0  0  0  0  0  0  0
  -16.1682   43.9895  -19.6682 C   0  0  0  0  0  0  0  0  0  0  0  0
  -15.4355   44.0300  -18.5023 C   0  0  0  0  0  0  0  0  0  0  0  0
  -14.3686   44.9181  -18.3992 C   0  0  0  0  0  0  0  0  0  0  0  0
  -14.0157   45.7651  -19.4291 C   0  0  0  0  0  0  0  0  0  0  0  0
  -14.7539   45.6992  -20.5556 N   0  0  0  0  0  0  0  0  0  0  0  0
  -15.7957   44.8509  -20.6926 C   0  0  0  0  0  0  0  0  0  0  0  0
  -18.5458   40.5548  -20.7616 N   0  0  0  0  0  0  0  0  0  0  0  0
  -20.9004   38.9943  -22.9471 C   0  0  0  0  0  0  0  0  0  0  0  0
  -21.1773   38.7282  -24.2760 C   0  0  0  0  0  0  0  0  0  0  0  0
  -22.7247   39.8160  -27.4921 C   0  0  0  0  0  0  0  0  0  0  0  0
  -23.2513   40.9632  -28.3279 C   0  0  0  0  0  0  0  0  0  0  0  0
  1  2  1  0
  2  3  1  0
  3  4  1  0
  4  5  1  0
  5  6  1  0
  6  7  2  0
  6  8  2  0
  6  9  1  0
  9 10  2  0
 10 11  1  0
 11 12  2  0
 12 13  1  0
 13 14  2  0
 14 15  1  0
 15 16  2  0
 16 17  1  0
 16 18  1  0
 18 19  1  0
 19 20  2  0
 19 21  1  0
 21 22  1  0
 22 23  2  0
 23 24  1  0
 24 25  2  0
 25 26  1  0
 26 27  2  0
 18 28  2  0
 12 29  1  0
 29 30  2  0
  5 31  1  0
 31 32  1  0
 32  2  1  0
 30  9  1  0
 28 13  1  0
 27 22  1  0
M  END
$$$$
