
     RDKit          3D

 16 18  0  0  0  0  0  0  0  0999 V2000
  -26.9266   18.1047  -21.8984 O   0  0  0  0  0  0  0  0  0  0  0  0
  -27.5838   17.2440  -22.5597 C   0  0  0  0  0  0  0  0  0  0  0  0
  -27.6142   17.4472  -23.9694 N   0  0  0  0  0  0  0  0  0  0  0  0
  -28.2405   16.5572  -24.9410 C   0  0  0  0  0  0  0  0  0  0  0  0
  -29.6374   16.2777  -24.4248 C   0  0  0  0  0  0  0  0  0  0  0  0
  -29.5751   14.9592  -23.6542 C   0  0  0  0  0  0  0  0  0  0  0  0
  -29.0658   15.2004  -22.2780 C   0  0  0  0  0  0  0  0  0  0  0  0
  -28.2141   16.1711  -21.7889 C   0  0  0  0  0  0  0  0  0  0  0  0
  -28.0445   15.9888  -20.4914 O   0  0  0  0  0  0  0  0  0  0  0  0
  -28.7237   14.9605  -20.0695 C   0  0  0  0  0  0  0  0  0  0  0  0
  -28.8378   14.4105  -18.7934 C   0  0  0  0  0  0  0  0  0  0  0  0
  -29.6521   13.3019  -18.6844 C   0  0  0  0  0  0  0  0  0  0  0  0
  -30.3226   12.7576  -19.7717 C   0  0  0  0  0  0  0  0  0  0  0  0
  -31.1402   11.6458  -19.6661 O   0  0  0  0  0  0  0  0  0  0  0  0
  -30.1855   13.3291  -21.0197 C   0  0  0  0  0  0  0  0  0  0  0  0
  -29.3832   14.4318  -21.1605 C   0  0  0  0  0  0  0  0  0  0  0  0
  1  2  2  0
  2  3  1  0
  3  4  1  0
  4  5  1  0
  5  6  1  0
  6  7  1  0
  7  8  2  0
  8  9  1  0
  9 10  1  0
 10 11  2  0
 11 12  1  0
 12 13  2  0
 13 14  1  0
 13 15  1  0
 15 16  2  0
  8  2  1  0
 16 10  1  0
 16  7  1  0
M  END
$$$$
