
     RDKit          3D

 24 26  0  0  0  0  0  0  0  0999 V2000
  -17.4072   -2.6930  -34.9238 N   0  0  0  0  0  0  0  0  0  0  0  0
  -16.2348   -1.9594  -34.6735 C   0  0  0  0  0  0  0  0  0  0  0  0
  -15.3704   -1.9263  -35.5790 O   0  0  0  0  0  0  0  0  0  0  0  0
  -16.0006   -1.2498  -33.4168 C   0  0  0  0  0  0  0  0  0  0  0  0
  -17.0973   -0.2253  -33.2524 C   0  0  0  0  0  0  0  0  0  0  0  0
  -17.7008    0.3410  -34.3521 C   0  0  0  0  0  0  0  0  0  0  0  0
  -18.6989    1.2733  -34.2231 C   0  0  0  0  0  0  0  0  0  0  0  0
  -19.1479    1.6908  -32.9927 C   0  0  0  0  0  0  0  0  0  0  0  0
  -18.5470    1.1279  -31.8897 C   0  0  0  0  0  0  0  0  0  0  0  0
  -17.5359    0.1832  -32.0122 C   0  0  0  0  0  0  0  0  0  0  0  0
  -14.7030   -0.4897  -33.4447 C   0  0  0  0  0  0  0  0  0  0  0  0
  -13.5048   -1.1160  -33.6607 C   0  0  0  0  0  0  0  0  0  0  0  0
  -12.2979   -0.4379  -33.7059 C   0  0  0  0  0  0  0  0  0  0  0  0
  -12.3047    0.9317  -33.5248 C   0  0  0  0  0  0  0  0  0  0  0  0
  -11.1225    1.6046  -33.5677 F   0  0  0  0  0  0  0  0  0  0  0  0
  -13.5125    1.5840  -33.3043 C   0  0  0  0  0  0  0  0  0  0  0  0
  -14.7084    0.8755  -33.2644 C   0  0  0  0  0  0  0  0  0  0  0  0
  -15.9991   -2.1259  -32.2406 C   0  0  0  0  0  0  0  0  0  0  0  0
  -15.1820   -1.8238  -31.1759 C   0  0  0  0  0  0  0  0  0  0  0  0
  -15.1742   -2.6577  -30.0683 C   0  0  0  0  0  0  0  0  0  0  0  0
  -15.9765   -3.7788  -30.0328 C   0  0  0  0  0  0  0  0  0  0  0  0
  -15.9594   -4.5869  -28.9430 F   0  0  0  0  0  0  0  0  0  0  0  0
  -16.7941   -4.0658  -31.1181 C   0  0  0  0  0  0  0  0  0  0  0  0
  -16.8096   -3.2550  -32.2086 C   0  0  0  0  0  0  0  0  0  0  0  0
  1  2  1  0
  2  3  2  0
  2  4  1  0
  4  5  1  0
  5  6  2  0
  6  7  1  0
  7  8  2  0
  8  9  1  0
  9 10  2  0
  4 11  1  0
 11 12  2  0
 12 13  1  0
 13 14  2  0
 14 15  1  0
 14 16  1  0
 16 17  2  0
  4 18  1  0
 18 19  2  0
 19 20  1  0
 20 21  2  0
 21 22  1  0
 21 23  1  0
 23 24  2  0
 10  5  1  0
 17 11  1  0
 24 18  1  0
M  END
$$$$
