
     RDKit          3D

 34 35  0  0  0  0  0  0  0  0999 V2000
  -22.7195   42.3347  -23.2776 O   0  0  0  0  0  0  0  0  0  0  0  0
  -21.7908   43.0426  -22.8476 C   0  0  0  0  0  0  0  0  0  0  0  0
  -21.7753   43.3986  -21.4208 C   0  0  0  0  0  0  0  0  0  0  0  0
  -22.8097   43.2863  -20.6458 C   0  0  0  0  0  0  0  0  0  0  0  0
  -22.9116   43.7228  -19.2517 C   0  0  0  0  0  0  0  0  0  0  0  0
  -21.9172   44.4853  -18.6737 C   0  0  0  0  0  0  0  0  0  0  0  0
  -22.0245   44.8852  -17.3749 C   0  0  0  0  0  0  0  0  0  0  0  0
  -23.1156   44.5505  -16.5916 C   0  0  0  0  0  0  0  0  0  0  0  0
  -23.2383   44.9530  -15.2613 O   0  0  0  0  0  0  0  0  0  0  0  0
  -24.1002   43.7879  -17.1853 C   0  0  0  0  0  0  0  0  0  0  0  0
  -25.2321   43.4168  -16.4389 O   0  0  0  0  0  0  0  0  0  0  0  0
  -24.0066   43.3758  -18.4971 C   0  0  0  0  0  0  0  0  0  0  0  0
  -20.8103   43.4673  -23.7324 O   0  0  0  0  0  0  0  0  0  0  0  0
  -20.6580   42.7724  -25.0027 C   0  0  1  0  0  0  0  0  0  0  0  0
  -20.1865   43.7383  -26.0163 C   0  0  0  0  0  0  0  0  0  0  0  0
  -19.7154   44.8596  -25.5777 O   0  0  0  0  0  0  0  0  0  0  0  0
  -20.1929   43.5864  -27.3729 O   0  0  0  0  0  0  0  0  0  0  0  0
  -19.6349   41.7069  -24.7786 C   0  0  1  0  0  0  0  0  0  0  0  0
  -20.1017   40.7804  -23.7762 O   0  0  0  0  0  0  0  0  0  0  0  0
  -19.2901   40.3246  -22.7758 C   0  0  0  0  0  0  0  0  0  0  0  0
  -18.5369   41.1615  -22.2169 O   0  0  0  0  0  0  0  0  0  0  0  0
  -19.2407   38.9363  -22.3166 C   0  0  0  0  0  0  0  0  0  0  0  0
  -18.4440   38.5822  -21.3289 C   0  0  0  0  0  0  0  0  0  0  0  0
  -18.2922   37.2260  -20.8303 C   0  0  0  0  0  0  0  0  0  0  0  0
  -19.0174   36.2235  -21.4536 C   0  0  0  0  0  0  0  0  0  0  0  0
  -18.9158   34.9121  -21.0387 C   0  0  0  0  0  0  0  0  0  0  0  0
  -18.0882   34.5715  -19.9929 C   0  0  0  0  0  0  0  0  0  0  0  0
  -17.9812   33.2397  -19.5672 O   0  0  0  0  0  0  0  0  0  0  0  0
  -17.3738   35.5639  -19.3805 C   0  0  0  0  0  0  0  0  0  0  0  0
  -16.5429   35.1660  -18.3188 O   0  0  0  0  0  0  0  0  0  0  0  0
  -17.4706   36.8752  -19.7893 C   0  0  0  0  0  0  0  0  0  0  0  0
  -19.2620   40.9414  -25.9945 C   0  0  0  0  0  0  0  0  0  0  0  0
  -20.1714   40.3024  -26.6415 O   0  0  0  0  0  0  0  0  0  0  0  0
  -17.9989   40.8337  -26.5256 O   0  0  0  0  0  0  0  0  0  0  0  0
  1  2  2  0
  2  3  1  0
  3  4  2  0
  4  5  1  0
  5  6  2  0
  6  7  1  0
  7  8  2  0
  8  9  1  0
  8 10  1  0
 10 11  1  0
 10 12  2  0
  2 13  1  0
 14 13  1  1
 14 15  1  0
 15 16  2  0
 15 17  1  0
 14 18  1  0
 18 19  1  1
 19 20  1  0
 20 21  2  0
 20 22  1  0
 22 23  2  0
 23 24  1  0
 24 25  2  0
 25 26  1  0
 26 27  2  0
 27 28  1  0
 27 29  1  0
 29 30  1  0
 29 31  2  0
 18 32  1  0
 32 33  2  0
 32 34  1  0
 12  5  1  0
 31 24  1  0
M  END
$$$$
