
     RDKit          3D

 20 21  0  0  0  0  0  0  0  0999 V2000
  -20.0150   35.0326  -23.8751 Cl  0  0  0  0  0  0  0  0  0  0  0  0
  -17.8415   38.8936  -21.0949 O   0  0  0  0  0  0  0  0  0  0  0  0
  -18.5967   37.8613  -21.6860 C   0  0  0  0  0  0  0  0  0  0  0  0
  -19.9684   37.9276  -21.6280 C   0  0  0  0  0  0  0  0  0  0  0  0
  -20.7237   36.9266  -22.2008 C   0  0  0  0  0  0  0  0  0  0  0  0
  -20.1040   35.8701  -22.8254 C   0  0  0  0  0  0  0  0  0  0  0  0
  -18.7369   35.8015  -22.8846 C   0  0  0  0  0  0  0  0  0  0  0  0
  -17.9977   36.7956  -22.3156 C   0  0  0  0  0  0  0  0  0  0  0  0
  -16.6127   36.7643  -22.3534 O   0  0  0  0  0  0  0  0  0  0  0  0
  -20.8217   34.7469  -23.4696 C   0  0  0  0  0  0  0  0  0  0  0  0
  -20.0362   33.9602  -24.4154 C   0  0  0  0  0  0  0  0  0  0  0  0
  -19.3987   32.8337  -23.9377 C   0  0  0  0  0  0  0  0  0  0  0  0
  -18.6291   32.0099  -24.7253 C   0  0  0  0  0  0  0  0  0  0  0  0
  -18.4706   32.3013  -26.0609 C   0  0  0  0  0  0  0  0  0  0  0  0
  -19.1146   33.4325  -26.5264 C   0  0  0  0  0  0  0  0  0  0  0  0
  -19.8867   34.2639  -25.7488 C   0  0  0  0  0  0  0  0  0  0  0  0
  -22.0464   35.2957  -24.2046 C   0  0  0  0  0  0  0  0  0  0  0  0
  -21.9689   36.7142  -24.4082 N   0  0  0  0  0  0  0  0  0  0  0  0
  -22.7272   37.4667  -23.4297 C   0  0  0  0  0  0  0  0  0  0  0  0
  -22.2067   37.1911  -22.0271 C   0  0  0  0  0  0  0  0  0  0  0  0
  2  3  1  0
  3  4  2  0
  4  5  1  0
  5  6  2  0
  6  7  1  0
  7  8  2  0
  8  9  1  0
  6 10  1  0
 10 11  1  0
 11 12  2  0
 12 13  1  0
 13 14  2  0
 14 15  1  0
 15 16  2  0
 10 17  1  0
 17 18  1  0
 18 19  1  0
 19 20  1  0
  8  3  1  0
 16 11  1  0
 20  5  1  0
M  END
$$$$
