
     RDKit          3D

 11 12  0  0  0  0  0  0  0  0999 V2000
  -17.2227   38.2629  -21.9224 O   0  0  0  0  0  0  0  0  0  0  0  0
  -18.4168   37.9367  -21.7801 C   0  0  0  0  0  0  0  0  0  0  0  0
  -19.3497   38.9480  -21.6254 O   0  0  0  0  0  0  0  0  0  0  0  0
  -18.8430   36.5273  -21.7738 C   0  0  0  0  0  0  0  0  0  0  0  0
  -18.0622   35.4483  -22.0425 C   0  0  0  0  0  0  0  0  0  0  0  0
  -18.9051   34.3588  -21.9108 C   0  0  0  0  0  0  0  0  0  0  0  0
  -18.9531   32.5900  -22.0231 S   0  0  0  0  0  0  0  0  0  0  0  0
  -20.7423   32.4632  -21.5901 C   0  0  0  0  0  0  0  0  0  0  0  0
  -21.0994   33.7656  -21.4104 C   0  0  0  0  0  0  0  0  0  0  0  0
  -20.1801   34.7394  -21.5691 C   0  0  0  0  0  0  0  0  0  0  0  0
  -20.0738   36.1127  -21.4989 N   0  0  0  0  0  0  0  0  0  0  0  0
  1  2  2  0
  2  3  1  0
  2  4  1  0
  4  5  2  0
  5  6  1  0
  6  7  1  0
  7  8  1  0
  8  9  2  0
  9 10  1  0
 10 11  1  0
 11  4  1  0
 10  6  2  0
M  END
$$$$
