
     RDKit          3D

 38 42  0  0  0  0  0  0  0  0999 V2000
  -25.9926   27.3934  -33.2170 C   0  0  0  0  0  0  0  0  0  0  0  0
  -25.8380   27.4995  -34.6189 O   0  0  0  0  0  0  0  0  0  0  0  0
  -24.9764   26.6172  -35.2482 C   0  0  0  0  0  0  0  0  0  0  0  0
  -23.6150   26.7013  -35.0632 C   0  0  0  0  0  0  0  0  0  0  0  0
  -22.7896   25.8049  -35.7069 C   0  0  0  0  0  0  0  0  0  0  0  0
  -23.2909   24.8019  -36.5500 C   0  0  0  0  0  0  0  0  0  0  0  0
  -24.6423   24.7135  -36.7372 C   0  0  0  0  0  0  0  0  0  0  0  0
  -25.4808   25.6156  -36.0910 C   0  0  0  0  0  0  0  0  0  0  0  0
  -26.8319   25.5309  -36.2756 O   0  0  0  0  0  0  0  0  0  0  0  0
  -27.5825   26.0032  -37.3499 C   0  0  0  0  0  0  0  0  0  0  0  0
  -28.8663   25.2138  -37.3634 C   0  0  0  0  0  0  0  0  0  0  0  0
  -29.2473   24.4536  -36.2706 C   0  0  0  0  0  0  0  0  0  0  0  0
  -30.4130   23.7211  -36.2503 C   0  0  0  0  0  0  0  0  0  0  0  0
  -31.2303   23.7354  -37.3371 C   0  0  0  0  0  0  0  0  0  0  0  0
  -30.8818   24.4819  -38.4436 C   0  0  0  0  0  0  0  0  0  0  0  0
  -29.7021   25.2147  -38.4464 C   0  0  0  0  0  0  0  0  0  0  0  0
  -25.2076   23.6577  -37.6091 C   0  0  0  0  0  0  0  0  0  0  0  0
  -24.2899   23.3813  -38.7865 C   0  0  1  0  0  0  0  0  0  0  0  0
  -24.4066   24.5686  -39.6587 C   0  0  0  0  0  0  0  0  0  0  0  0
  -24.1687   25.7084  -39.1944 O   0  0  0  0  0  0  0  0  0  0  0  0
  -24.7730   24.4639  -40.9869 O   0  0  0  0  0  0  0  0  0  0  0  0
  -22.9380   23.1465  -38.3095 N   0  0  0  0  0  0  0  0  0  0  0  0
  -22.1526   22.1482  -38.9391 C   0  0  0  0  0  0  0  0  0  0  0  0
  -22.6809   21.4853  -39.8713 O   0  0  0  0  0  0  0  0  0  0  0  0
  -20.7584   21.8395  -38.5731 C   0  0  0  0  0  0  0  0  0  0  0  0
  -20.1818   20.6686  -39.2333 C   0  0  0  0  0  0  0  0  0  0  0  0
  -20.1122   19.4716  -38.5258 C   0  0  0  0  0  0  0  0  0  0  0  0
  -19.5493   18.3925  -39.1892 C   0  0  0  0  0  0  0  0  0  0  0  0
  -19.0839   18.4939  -40.4753 C   0  0  0  0  0  0  0  0  0  0  0  0
  -19.1726   19.7007  -41.1403 C   0  0  0  0  0  0  0  0  0  0  0  0
  -19.7210   20.7842  -40.5180 C   0  0  0  0  0  0  0  0  0  0  0  0
  -19.9067   23.0176  -38.8700 C   0  0  0  0  0  0  0  0  0  0  0  0
  -20.0624   23.7432  -40.0545 C   0  0  0  0  0  0  0  0  0  0  0  0
  -19.2849   24.8380  -40.3569 C   0  0  0  0  0  0  0  0  0  0  0  0
  -18.3096   25.2269  -39.4393 C   0  0  0  0  0  0  0  0  0  0  0  0
  -18.1672   24.5019  -38.2752 C   0  0  0  0  0  0  0  0  0  0  0  0
  -18.9390   23.4110  -37.9697 C   0  0  0  0  0  0  0  0  0  0  0  0
  -22.3678   23.8667  -37.2166 C   0  0  0  0  0  0  0  0  0  0  0  0
  1  2  1  0
  2  3  1  0
  3  4  2  0
  4  5  1  0
  5  6  2  0
  6  7  1  0
  7  8  2  0
  8  9  1  0
  9 10  1  0
 10 11  1  0
 11 12  2  0
 12 13  1  0
 13 14  2  0
 14 15  1  0
 15 16  2  0
  7 17  1  0
 17 18  1  0
 18 19  1  6
 19 20  2  0
 19 21  1  0
 18 22  1  0
 22 23  1  0
 23 24  2  0
 23 25  1  0
 25 26  1  0
 26 27  2  0
 27 28  1  0
 28 29  2  0
 29 30  1  0
 30 31  2  0
 25 32  1  0
 32 33  2  0
 33 34  1  0
 34 35  2  0
 35 36  1  0
 36 37  2  0
 22 38  1  0
  8  3  1  0
 16 11  1  0
 31 26  1  0
 37 32  1  0
 38  6  1  0
M  END
$$$$
