
     RDKit          3D

 33 38  0  0  0  0  0  0  0  0999 V2000
  -16.5601   51.4784  -23.9352 C   0  0  0  0  0  0  0  0  0  0  0  0
  -17.0381   50.1965  -23.3530 C   0  0  0  0  0  0  0  0  0  0  0  0
  -18.3654   49.9364  -23.0835 C   0  0  0  0  0  0  0  0  0  0  0  0
  -18.4052   48.6854  -22.5677 C   0  0  0  0  0  0  0  0  0  0  0  0
  -17.1001   48.1778  -22.5208 C   0  0  0  0  0  0  0  0  0  0  0  0
  -16.7823   46.8764  -22.0336 C   0  0  0  0  0  0  0  0  0  0  0  0
  -15.3635   46.6548  -21.8425 N   0  0  0  0  0  0  0  0  0  0  0  0
  -14.9779   45.6890  -20.8950 C   0  0  0  0  0  0  0  0  0  0  0  0
  -13.7156   45.7314  -20.2920 C   0  0  0  0  0  0  0  0  0  0  0  0
  -13.3598   44.7578  -19.4036 C   0  0  0  0  0  0  0  0  0  0  0  0
  -14.2601   43.7776  -19.1417 C   0  0  0  0  0  0  0  0  0  0  0  0
  -15.5366   43.6968  -19.7237 C   0  0  0  0  0  0  0  0  0  0  0  0
  -15.8970   44.6675  -20.6102 C   0  0  0  0  0  0  0  0  0  0  0  0
  -17.1774   44.6558  -21.2825 N   0  0  0  0  0  0  0  0  0  0  0  0
  -18.0517   43.6545  -21.3784 C   0  0  0  0  0  0  0  0  0  0  0  0
  -18.1799   42.3987  -20.6571 C   0  0  0  0  0  0  0  0  0  0  0  0
  -17.7866   41.1965  -21.1601 C   0  0  0  0  0  0  0  0  0  0  0  0
  -18.0419   40.0396  -20.4766 C   0  0  0  0  0  0  0  0  0  0  0  0
  -18.7028   40.0206  -19.2561 C   0  0  0  0  0  0  0  0  0  0  0  0
  -19.0945   41.2421  -18.7595 C   0  0  0  0  0  0  0  0  0  0  0  0
  -18.8452   42.4089  -19.4337 C   0  0  0  0  0  0  0  0  0  0  0  0
  -18.9758   43.9814  -22.3838 C   0  0  0  0  0  0  0  0  0  0  0  0
  -20.0395   43.2812  -22.8694 C   0  0  0  0  0  0  0  0  0  0  0  0
  -20.3556   42.1516  -22.4093 O   0  0  0  0  0  0  0  0  0  0  0  0
  -20.7596   43.8453  -23.8792 N   0  0  0  0  0  0  0  0  0  0  0  0
  -21.8882   43.0875  -24.3823 C   0  0  0  0  0  0  0  0  0  0  0  0
  -20.4149   45.0444  -24.3619 C   0  0  0  0  0  0  0  0  0  0  0  0
  -21.0890   45.5498  -25.2926 O   0  0  0  0  0  0  0  0  0  0  0  0
  -19.3502   45.7679  -23.8925 N   0  0  0  0  0  0  0  0  0  0  0  0
  -18.9907   47.0147  -24.5137 C   0  0  0  0  0  0  0  0  0  0  0  0
  -18.6376   45.2207  -22.8951 C   0  0  0  0  0  0  0  0  0  0  0  0
  -17.5062   45.6505  -22.1853 C   0  0  0  0  0  0  0  0  0  0  0  0
  -16.3495   49.1287  -23.0015 O   0  0  0  0  0  0  0  0  0  0  0  0
  1  2  1  0
  2  3  2  0
  3  4  1  0
  4  5  2  0
  5  6  1  0
  6  7  1  0
  7  8  1  0
  8  9  2  0
  9 10  1  0
 10 11  2  0
 11 12  1  0
 12 13  2  0
 13 14  1  0
 14 15  1  0
 15 16  1  0
 16 17  2  0
 17 18  1  0
 18 19  2  0
 19 20  1  0
 20 21  2  0
 15 22  2  0
 22 23  1  0
 23 24  2  0
 23 25  1  0
 25 26  1  0
 25 27  1  0
 27 28  2  0
 27 29  1  0
 29 30  1  0
 29 31  1  0
 31 32  2  0
  5 33  1  0
 33  2  1  0
 32  6  1  0
 13  8  1  0
 32 14  1  0
 21 16  1  0
 31 22  1  0
M  END
$$$$
