
     RDKit          3D

 26 28  0  0  0  0  0  0  0  0999 V2000
  -22.4264   41.8538  -25.7782 N   0  0  0  0  0  0  0  0  0  0  0  0
  -21.1188   41.3812  -25.4362 C   0  0  1  0  0  0  0  0  0  0  0  0
  -20.9119   41.5113  -23.9313 C   0  0  0  0  0  0  0  0  0  0  0  0
  -20.8044   39.8493  -23.2723 S   0  0  0  0  0  0  0  0  0  0  0  0
  -19.9487   39.8239  -21.6409 C   0  0  0  0  0  0  0  0  0  0  0  0
  -19.8580   38.4277  -21.2195 C   0  0  0  0  0  0  0  0  0  0  0  0
  -20.5529   37.3921  -21.8198 C   0  0  0  0  0  0  0  0  0  0  0  0
  -20.4760   36.0771  -21.4159 C   0  0  0  0  0  0  0  0  0  0  0  0
  -19.6625   35.7459  -20.3486 C   0  0  0  0  0  0  0  0  0  0  0  0
  -18.9577   36.7451  -19.7269 C   0  0  0  0  0  0  0  0  0  0  0  0
  -19.0489   38.0535  -20.1460 C   0  0  0  0  0  0  0  0  0  0  0  0
  -20.7237   40.6580  -20.6799 C   0  0  0  0  0  0  0  0  0  0  0  0
  -20.0842   41.2324  -19.5886 C   0  0  0  0  0  0  0  0  0  0  0  0
  -20.7746   42.0095  -18.6930 C   0  0  0  0  0  0  0  0  0  0  0  0
  -22.1101   42.2484  -18.8366 C   0  0  0  0  0  0  0  0  0  0  0  0
  -22.7740   41.6924  -19.9096 C   0  0  0  0  0  0  0  0  0  0  0  0
  -22.0674   40.9017  -20.8194 C   0  0  0  0  0  0  0  0  0  0  0  0
  -18.5916   40.4355  -21.8787 C   0  0  0  0  0  0  0  0  0  0  0  0
  -17.6833   39.8089  -22.7065 C   0  0  0  0  0  0  0  0  0  0  0  0
  -16.4238   40.2825  -22.9816 C   0  0  0  0  0  0  0  0  0  0  0  0
  -16.0934   41.4733  -22.3609 C   0  0  0  0  0  0  0  0  0  0  0  0
  -16.9733   42.1267  -21.5290 C   0  0  0  0  0  0  0  0  0  0  0  0
  -18.2225   41.6130  -21.2841 C   0  0  0  0  0  0  0  0  0  0  0  0
  -20.8520   40.0051  -25.9002 C   0  0  0  0  0  0  0  0  0  0  0  0
  -19.9186   39.7161  -26.6934 O   0  0  0  0  0  0  0  0  0  0  0  0
  -21.6440   38.9493  -25.4657 O   0  0  0  0  0  0  0  0  0  0  0  0
  2  1  1  1
  2  3  1  0
  3  4  1  0
  4  5  1  0
  5  6  1  0
  6  7  2  0
  7  8  1  0
  8  9  2  0
  9 10  1  0
 10 11  2  0
  5 12  1  0
 12 13  2  0
 13 14  1  0
 14 15  2  0
 15 16  1  0
 16 17  2  0
  5 18  1  0
 18 19  2  0
 19 20  1  0
 20 21  2  0
 21 22  1  0
 22 23  2  0
  2 24  1  0
 24 25  2  0
 24 26  1  0
 11  6  1  0
 17 12  1  0
 23 18  1  0
M  END
$$$$
