
     RDKit          3D

 22 26  0  0  0  0  0  0  0  0999 V2000
  -22.2822   37.2223  -26.2574 C   0  0  0  0  0  0  0  0  0  0  0  0
  -22.6832   37.4933  -24.8430 C   0  0  2  0  0  0  0  0  0  0  0  0
  -24.0799   36.9573  -24.5647 C   0  0  0  0  0  0  0  0  0  0  0  0
  -24.7516   37.9823  -23.6734 C   0  0  0  0  0  0  0  0  0  0  0  0
  -23.5500   38.8540  -23.2826 C   0  0  0  0  0  0  0  0  0  0  0  0
  -22.8462   38.8944  -24.5436 N   0  0  0  0  0  0  0  0  0  0  0  0
  -21.6282   39.6512  -24.4846 C   0  0  0  0  0  0  0  0  0  0  0  0
  -20.6652   39.0665  -23.5353 C   0  0  0  0  0  0  0  0  0  0  0  0
  -19.8351   39.9172  -23.0354 N   0  0  0  0  0  0  0  0  0  0  0  0
  -18.7907   39.7076  -22.1056 N   0  0  0  0  0  0  0  0  0  0  0  0
  -18.3611   38.4785  -21.4838 C   0  0  0  0  0  0  0  0  0  0  0  0
  -17.3866   38.5423  -20.7107 O   0  0  0  0  0  0  0  0  0  0  0  0
  -18.9333   37.1491  -21.6488 C   0  0  0  0  0  0  0  0  0  0  0  0
  -18.3304   36.1547  -20.9159 C   0  0  0  0  0  0  0  0  0  0  0  0
  -18.7871   34.8465  -20.9898 C   0  0  0  0  0  0  0  0  0  0  0  0
  -18.1778   33.8734  -20.2565 F   0  0  0  0  0  0  0  0  0  0  0  0
  -19.8584   34.5758  -21.8164 C   0  0  0  0  0  0  0  0  0  0  0  0
  -20.4883   35.5470  -22.5663 C   0  0  0  0  0  0  0  0  0  0  0  0
  -21.5175   35.6126  -23.4363 N   0  0  0  0  0  0  0  0  0  0  0  0
  -21.7121   36.8521  -23.8873 C   0  0  0  0  0  0  0  0  0  0  0  0
  -20.7699   37.6359  -23.2879 C   0  0  0  0  0  0  0  0  0  0  0  0
  -20.0087   36.8422  -22.4703 C   0  0  0  0  0  0  0  0  0  0  0  0
  2  1  1  6
  2  3  1  0
  3  4  1  0
  4  5  1  0
  5  6  1  0
  6  7  1  0
  7  8  1  0
  8  9  2  0
  9 10  1  0
 10 11  1  0
 11 12  2  0
 11 13  1  0
 13 14  1  0
 14 15  2  0
 15 16  1  0
 15 17  1  0
 17 18  2  0
 18 19  1  0
 19 20  1  0
 20 21  2  0
 21 22  1  0
  6  2  1  0
 21  8  1  0
 20  2  1  0
 22 13  2  0
 22 18  1  0
M  END
$$$$
