
     RDKit          3D

 61 68  0  0  0  0  0  0  0  0999 V2000
  -33.8215   12.8542  -18.2103 C   0  0  0  0  0  0  0  0  0  0  0  0
  -33.5061   11.5235  -17.5694 C   0  0  0  0  0  0  0  0  0  0  0  0
  -34.3968   10.6077  -17.1684 N   0  0  0  0  0  0  0  0  0  0  0  0
  -33.7626    9.5323  -16.6991 N   0  0  0  0  0  0  0  0  0  0  0  0
  -34.4487    8.3494  -16.1487 C   0  0  0  0  0  0  0  0  0  0  0  0
  -32.4456    9.7157  -16.7810 C   0  0  0  0  0  0  0  0  0  0  0  0
  -31.3273    8.8221  -16.3351 C   0  0  0  0  0  0  0  0  0  0  0  0
  -31.2735    7.5818  -16.8968 O   0  0  0  0  0  0  0  0  0  0  0  0
  -30.8180    7.0971  -18.0746 C   0  0  0  0  0  0  0  0  0  0  0  0
  -31.2264    5.8421  -18.5247 C   0  0  0  0  0  0  0  0  0  0  0  0
  -30.7803    5.3247  -19.7139 C   0  0  0  0  0  0  0  0  0  0  0  0
  -29.9095    5.9960  -20.5383 C   0  0  0  0  0  0  0  0  0  0  0  0
  -29.4410    5.4624  -21.7673 N   0  0  0  0  0  0  0  0  0  0  0  0
  -29.4777    4.0320  -21.9280 C   0  0  0  0  0  0  0  0  0  0  0  0
  -28.7019    3.5225  -23.1137 C   0  0  0  0  0  0  0  0  0  0  0  0
  -28.5333    4.4421  -24.1474 N   0  0  0  0  0  0  0  0  0  0  0  0
  -27.2865    4.2710  -25.2491 S   0  0  0  0  0  6  0  0  0  0  0  0
  -26.4267    3.0387  -24.9947 O   0  0  0  0  0  0  0  0  0  0  0  0
  -26.3956    5.5029  -25.1754 O   0  0  0  0  0  0  0  0  0  0  0  0
  -27.8693    4.1842  -26.8797 N   0  0  0  0  0  0  0  0  0  0  0  0
  -28.2371    2.8615  -27.2863 C   0  0  0  0  0  0  0  0  0  0  0  0
  -28.9471    5.1375  -27.0926 C   0  0  0  0  0  0  0  0  0  0  0  0
  -29.1976    5.6708  -24.1338 C   0  0  0  0  0  0  0  0  0  0  0  0
  -28.9590    6.3519  -22.7823 C   0  0  0  0  0  0  0  0  0  0  0  0
  -29.4928    7.2528  -20.1001 C   0  0  0  0  0  0  0  0  0  0  0  0
  -29.9377    7.7759  -18.9083 C   0  0  0  0  0  0  0  0  0  0  0  0
  -32.2589   10.9945  -17.3381 C   0  0  0  0  0  0  0  0  0  0  0  0
  -30.9503   11.5530  -17.6186 C   0  0  0  0  0  0  0  0  0  0  0  0
  -30.1981   12.0240  -16.5329 C   0  0  0  0  0  0  0  0  0  0  0  0
  -28.9695   12.5673  -16.6783 C   0  0  0  0  0  0  0  0  0  0  0  0
  -28.4180   12.6730  -17.9173 C   0  0  0  0  0  0  0  0  0  0  0  0
  -29.1237   12.2218  -19.0162 C   0  0  0  0  0  0  0  0  0  0  0  0
  -28.7675   12.2658  -20.3437 C   0  0  0  0  0  0  0  0  0  0  0  0
  -27.4924   12.7948  -20.8678 C   0  0  0  0  0  0  0  0  0  0  0  0
  -27.7217   13.9731  -21.7989 C   0  0  0  0  0  0  0  0  0  0  0  0
  -28.7060   14.9672  -21.2874 C   0  0  0  0  0  0  0  0  0  0  0  0
  -27.9613   16.1802  -21.0669 O   0  0  0  0  0  0  0  0  0  0  0  0
  -27.6692   17.0266  -22.1255 C   0  0  0  0  0  0  0  0  0  0  0  0
  -26.3918   17.5534  -22.1903 C   0  0  0  0  0  0  0  0  0  0  0  0
  -26.0953   18.3924  -23.2350 C   0  0  0  0  0  0  0  0  0  0  0  0
  -27.0517   18.6904  -24.1813 C   0  0  0  0  0  0  0  0  0  0  0  0
  -28.3124   18.1583  -24.1000 C   0  0  0  0  0  0  0  0  0  0  0  0
  -29.2555   18.4735  -25.0680 C   0  0  0  0  0  0  0  0  0  0  0  0
  -30.5234   17.9201  -24.9638 C   0  0  0  0  0  0  0  0  0  0  0  0
  -30.8208   17.0789  -23.9162 C   0  0  0  0  0  0  0  0  0  0  0  0
  -29.8997   16.7543  -22.9465 C   0  0  0  0  0  0  0  0  0  0  0  0
  -28.6458   17.3097  -23.0616 C   0  0  0  0  0  0  0  0  0  0  0  0
  -29.8459   11.7151  -21.0378 C   0  0  0  0  0  0  0  0  0  0  0  0
  -29.8606   11.6106  -22.4823 C   0  0  0  0  0  0  0  0  0  0  0  0
  -28.9911   12.2104  -23.1555 O   0  0  0  0  0  0  0  0  0  0  0  0
  -30.7806   10.8918  -23.1793 O   0  0  0  0  0  0  0  0  0  0  0  0
  -30.7864   11.3633  -20.1441 N   0  0  0  0  0  0  0  0  0  0  0  0
  -32.0499   10.7172  -20.3981 C   0  0  0  0  0  0  0  0  0  0  0  0
  -32.2237    9.3859  -19.7457 C   0  0  0  0  0  0  0  0  0  0  0  0
  -33.5465    8.7657  -19.9142 N   0  0  0  0  0  0  0  0  0  0  0  0
  -34.4212    9.8210  -20.4237 C   0  0  0  0  0  0  0  0  0  0  0  0
  -35.0903    9.4335  -21.6995 C   0  0  0  0  0  0  0  0  0  0  0  0
  -35.6347    8.1664  -21.6646 O   0  0  0  0  0  0  0  0  0  0  0  0
  -34.7368    7.1874  -21.3188 C   0  0  0  0  0  0  0  0  0  0  0  0
  -33.4043    7.8089  -21.0518 C   0  0  0  0  0  0  0  0  0  0  0  0
  -30.3811   11.6650  -18.8633 C   0  0  0  0  0  0  0  0  0  0  0  0
  1  2  1  0
  2  3  2  0
  3  4  1  0
  4  5  1  0
  4  6  1  0
  6  7  1  0
  7  8  1  0
  8  9  1  0
  9 10  2  0
 10 11  1  0
 11 12  2  0
 12 13  1  0
 13 14  1  0
 14 15  1  0
 15 16  1  0
 16 17  1  0
 17 18  2  0
 17 19  2  0
 17 20  1  0
 20 21  1  0
 20 22  1  0
 16 23  1  0
 23 24  1  0
 12 25  1  0
 25 26  2  0
  6 27  2  0
 27 28  1  0
 28 29  2  0
 29 30  1  0
 30 31  2  0
 31 32  1  0
 32 33  1  0
 33 34  1  0
 34 35  1  0
 35 36  1  0
 36 37  1  0
 37 38  1  0
 38 39  2  0
 39 40  1  0
 40 41  2  0
 41 42  1  0
 42 43  2  0
 43 44  1  0
 44 45  2  0
 45 46  1  0
 46 47  2  0
 33 48  2  0
 48 49  1  0
 49 50  2  0
 49 51  1  0
 48 52  1  0
 52 53  1  0
 53 54  1  0
 54 55  1  0
 55 56  1  0
 56 57  1  0
 57 58  1  0
 58 59  1  0
 59 60  1  0
 52 61  1  0
 27  2  1  0
 61 28  1  0
 26  9  1  0
 61 32  2  0
 24 13  1  0
 47 38  1  0
 60 55  1  0
 47 42  1  0
M  END
$$$$
