
     RDKit          3D

 14 14  0  0  0  0  0  0  0  0999 V2000
  -16.8962   17.1304  -34.8348 Cl  0  0  0  0  0  0  0  0  0  0  0  0
  -14.0598   18.0992  -35.9781 N   0  0  0  0  0  0  0  0  0  0  0  0
  -14.7899   19.1932  -36.5193 C   0  0  0  0  0  0  0  0  0  0  0  0
  -16.0496   19.5544  -35.7523 C   0  0  0  0  0  0  0  0  0  0  0  0
  -17.0150   18.4405  -35.6819 C   0  0  0  0  0  0  0  0  0  0  0  0
  -18.1338   18.2051  -36.4512 C   0  0  0  0  0  0  0  0  0  0  0  0
  -18.7247   17.0714  -36.0939 N   0  0  0  0  0  0  0  0  0  0  0  0
  -17.9962   16.5626  -35.0920 C   0  0  0  0  0  0  0  0  0  0  0  0
  -18.1381   15.4165  -34.3428 C   0  0  0  0  0  0  0  0  0  0  0  0
  -17.2717   15.0664  -33.3382 C   0  0  0  0  0  0  0  0  0  0  0  0
  -16.2067   15.8870  -33.0540 C   0  0  0  0  0  0  0  0  0  0  0  0
  -15.3577   15.5311  -32.0553 F   0  0  0  0  0  0  0  0  0  0  0  0
  -16.0465   17.0347  -33.7895 C   0  0  0  0  0  0  0  0  0  0  0  0
  -16.9132   17.3808  -34.7930 C   0  0  0  0  0  0  0  0  0  0  0  0
  2  3  1  0
  3  4  1  0
  4  5  1  0
  5  6  2  0
  6  7  1  0
  7  8  1  0
  8  9  2  0
  9 10  1  0
 10 11  2  0
 11 12  1  0
 11 13  1  0
 13 14  2  0
 14  5  1  0
 14  8  1  0
M  END
$$$$
