
     RDKit          3D

 34 38  0  0  0  0  0  0  0  0999 V2000
  -23.2837   29.4651  -27.6486 C   0  0  0  0  0  0  0  0  0  0  0  0
  -23.1943   27.9829  -27.6305 C   0  0  0  0  0  0  0  0  0  0  0  0
  -23.4545   27.0901  -28.5884 N   0  0  0  0  0  0  0  0  0  0  0  0
  -23.2326   25.8352  -28.1232 C   0  0  0  0  0  0  0  0  0  0  0  0
  -23.4026   24.5767  -28.8659 C   0  0  0  0  0  0  0  0  0  0  0  0
  -24.6171   24.0946  -29.3007 C   0  0  0  0  0  0  0  0  0  0  0  0
  -24.4051   22.9504  -29.9280 N   0  0  0  0  0  0  0  0  0  0  0  0
  -23.0785   22.7096  -29.8924 C   0  0  0  0  0  0  0  0  0  0  0  0
  -22.4529   23.7049  -29.2409 N   0  0  0  0  0  0  0  0  0  0  0  0
  -22.3460   21.5604  -30.4543 C   0  0  0  0  0  0  0  0  0  0  0  0
  -21.0802   21.4000  -29.9286 C   0  0  0  0  0  0  0  0  0  0  0  0
  -20.2928   20.3477  -30.3819 C   0  0  0  0  0  0  0  0  0  0  0  0
  -20.7225   19.4513  -31.3394 C   0  0  0  0  0  0  0  0  0  0  0  0
  -19.8717   18.3444  -31.8048 C   0  0  0  0  0  0  0  0  0  0  0  0
  -18.7867   18.4398  -32.6408 C   0  0  0  0  0  0  0  0  0  0  0  0
  -18.2660   17.2265  -32.8390 N   0  0  0  0  0  0  0  0  0  0  0  0
  -18.9850   16.3518  -32.1540 N   0  0  0  0  0  0  0  0  0  0  0  0
  -18.7567   14.9277  -32.0970 C   0  0  0  0  0  0  0  0  0  0  0  0
  -17.3100   14.6510  -32.5211 C   0  0  0  0  0  0  0  0  0  0  0  0
  -19.0211   14.3985  -30.7115 C   0  0  0  0  0  0  0  0  0  0  0  0
  -19.6266   14.1972  -33.0428 C   0  0  0  0  0  0  0  0  0  0  0  0
  -20.6140   14.8739  -33.8129 N   0  0  0  0  0  0  0  0  0  0  0  0
  -19.5405   12.9435  -33.2165 O   0  0  0  0  0  0  0  0  0  0  0  0
  -19.9807   16.9969  -31.5050 C   0  0  0  0  0  0  0  0  0  0  0  0
  -21.9946   19.6427  -31.8430 C   0  0  0  0  0  0  0  0  0  0  0  0
  -22.8000   20.6776  -31.4132 C   0  0  0  0  0  0  0  0  0  0  0  0
  -24.0596   20.7045  -32.0452 O   0  0  0  0  0  0  0  0  0  0  0  0
  -25.0423   21.7376  -31.9773 C   0  0  0  0  0  0  0  0  0  0  0  0
  -25.3960   22.0847  -30.5528 C   0  0  0  0  0  0  0  0  0  0  0  0
  -22.8288   25.9937  -26.8505 N   0  0  0  0  0  0  0  0  0  0  0  0
  -22.4670   24.9200  -25.9222 C   0  0  0  0  0  0  0  0  0  0  0  0
  -23.7738   24.3636  -25.3566 C   0  0  0  0  0  0  0  0  0  0  0  0
  -21.7363   25.5594  -24.7779 C   0  0  0  0  0  0  0  0  0  0  0  0
  -22.8014   27.2973  -26.5390 N   0  0  0  0  0  0  0  0  0  0  0  0
  1  2  1  0
  2  3  1  0
  3  4  2  0
  4  5  1  0
  5  6  2  0
  6  7  1  0
  7  8  1  0
  8  9  2  0
  8 10  1  0
 10 11  2  0
 11 12  1  0
 12 13  2  0
 13 14  1  0
 14 15  1  0
 15 16  2  0
 16 17  1  0
 17 18  1  0
 18 19  1  0
 18 20  1  0
 18 21  1  0
 21 22  1  0
 21 23  2  0
 17 24  1  0
 13 25  1  0
 25 26  2  0
 26 27  1  0
 27 28  1  0
 28 29  1  0
  4 30  1  0
 30 31  1  0
 31 32  1  0
 31 33  1  0
 30 34  1  0
 34  2  2  0
  9  5  1  0
 26 10  1  0
 29  7  1  0
 24 14  2  0
M  END
$$$$
