
     RDKit          3D

 21 23  0  0  0  0  0  0  0  0999 V2000
  -18.9545   14.4303  -32.8237 N   0  0  0  0  0  0  0  0  0  0  0  0
  -18.4647   15.2169  -33.9200 C   0  0  0  0  0  0  0  0  0  0  0  0
  -17.2634   15.8920  -33.8233 C   0  0  0  0  0  0  0  0  0  0  0  0
  -16.7951   16.6402  -34.8641 C   0  0  0  0  0  0  0  0  0  0  0  0
  -17.5404   16.7151  -36.0220 C   0  0  0  0  0  0  0  0  0  0  0  0
  -17.0907   17.4953  -37.1617 C   0  0  0  0  0  0  0  0  0  0  0  0
  -17.8704   18.3675  -37.8705 C   0  0  0  0  0  0  0  0  0  0  0  0
  -17.3864   19.0545  -38.9143 N   0  0  0  0  0  0  0  0  0  0  0  0
  -16.1099   18.9441  -39.3452 C   0  0  0  0  0  0  0  0  0  0  0  0
  -15.6196   19.6783  -40.4491 N   0  0  0  0  0  0  0  0  0  0  0  0
  -15.2834   18.0701  -38.6550 C   0  0  0  0  0  0  0  0  0  0  0  0
  -13.8991   17.9346  -39.1043 C   0  0  0  0  0  0  0  0  0  0  0  0
  -12.8913   18.2092  -38.1978 C   0  0  0  0  0  0  0  0  0  0  0  0
  -11.5620   18.1054  -38.5415 C   0  0  0  0  0  0  0  0  0  0  0  0
  -11.2061   17.7139  -39.8354 C   0  0  0  0  0  0  0  0  0  0  0  0
   -9.5114   17.5931  -40.2353 Cl  0  0  0  0  0  0  0  0  0  0  0  0
  -12.2095   17.4474  -40.7154 C   0  0  0  0  0  0  0  0  0  0  0  0
  -13.5300   17.5537  -40.3633 C   0  0  0  0  0  0  0  0  0  0  0  0
  -15.7784   17.3630  -37.5820 C   0  0  0  0  0  0  0  0  0  0  0  0
  -18.7409   16.0445  -36.1275 C   0  0  0  0  0  0  0  0  0  0  0  0
  -19.1474   15.3252  -35.0686 N   0  0  0  0  0  0  0  0  0  0  0  0
  1  2  1  0
  2  3  2  0
  3  4  1  0
  4  5  2  0
  5  6  1  0
  6  7  2  0
  7  8  1  0
  8  9  2  0
  9 10  1  0
  9 11  1  0
 11 12  1  0
 12 13  2  0
 13 14  1  0
 14 15  2  0
 15 16  1  0
 15 17  1  0
 17 18  2  0
 11 19  2  0
  5 20  1  0
 20 21  2  0
 21  2  1  0
 19  6  1  0
 18 12  1  0
M  END
$$$$
