
     RDKit          3D

 30 33  0  0  0  0  0  0  0  0999 V2000
  -39.7327    4.8763  -31.1859 C   0  0  0  0  0  0  0  0  0  0  0  0
  -40.2646    6.0655  -31.8983 C   0  0  0  0  0  0  0  0  0  0  0  0
  -39.4292    6.8701  -32.3874 O   0  0  0  0  0  0  0  0  0  0  0  0
  -41.6398    6.3332  -32.0512 N   0  0  0  0  0  0  0  0  0  0  0  0
  -42.0966    7.5939  -32.6323 C   0  0  0  0  0  0  0  0  0  0  0  0
  -42.9969    8.2871  -32.7861 N   0  0  0  0  0  0  0  0  0  0  0  0
  -43.0921    9.4488  -33.4048 C   0  0  0  0  0  0  0  0  0  0  0  0
  -44.1973   10.2899  -33.5881 C   0  0  0  0  0  0  0  0  0  0  0  0
  -45.4642    9.9843  -33.0955 O   0  0  0  0  0  0  0  0  0  0  0  0
  -46.4729    9.4736  -33.8611 C   0  0  0  0  0  0  0  0  0  0  0  0
  -46.1812    8.6853  -34.9714 C   0  0  0  0  0  0  0  0  0  0  0  0
  -47.1793    8.1586  -35.7594 C   0  0  0  0  0  0  0  0  0  0  0  0
  -46.8869    7.3338  -36.9216 C   0  0  0  0  0  0  0  0  0  0  0  0
  -47.8075    6.3527  -37.2939 C   0  0  0  0  0  0  0  0  0  0  0  0
  -47.5854    5.5457  -38.3799 C   0  0  0  0  0  0  0  0  0  0  0  0
  -46.4496    5.6625  -39.1526 C   0  0  0  0  0  0  0  0  0  0  0  0
  -46.2300    4.7735  -40.3290 C   0  0  0  0  0  0  0  0  0  0  0  0
  -44.9614    4.9765  -40.8093 F   0  0  0  0  0  0  0  0  0  0  0  0
  -47.2053    5.0291  -41.2814 F   0  0  0  0  0  0  0  0  0  0  0  0
  -46.3964    3.4411  -39.9472 F   0  0  0  0  0  0  0  0  0  0  0  0
  -45.5294    6.6241  -38.8020 C   0  0  0  0  0  0  0  0  0  0  0  0
  -45.7654    7.4418  -37.6928 C   0  0  0  0  0  0  0  0  0  0  0  0
  -48.4684    8.4384  -35.4112 N   0  0  0  0  0  0  0  0  0  0  0  0
  -48.7562    9.1974  -34.3425 C   0  0  0  0  0  0  0  0  0  0  0  0
  -47.7643    9.7075  -33.5784 N   0  0  0  0  0  0  0  0  0  0  0  0
  -44.0716   11.4731  -34.2751 C   0  0  0  0  0  0  0  0  0  0  0  0
  -42.9139   11.9168  -34.8163 C   0  0  0  0  0  0  0  0  0  0  0  0
  -41.7899   11.0983  -34.6503 C   0  0  0  0  0  0  0  0  0  0  0  0
  -41.9247    9.9069  -33.9564 C   0  0  0  0  0  0  0  0  0  0  0  0
  -40.7610    8.6041  -33.5324 S   0  0  0  0  0  0  0  0  0  0  0  0
  1  2  1  0
  2  3  2  0
  2  4  1  0
  4  5  1  0
  5  6  2  0
  6  7  1  0
  7  8  2  0
  8  9  1  0
  9 10  1  0
 10 11  2  0
 11 12  1  0
 12 13  1  0
 13 14  2  0
 14 15  1  0
 15 16  2  0
 16 17  1  0
 17 18  1  0
 17 19  1  0
 17 20  1  0
 16 21  1  0
 21 22  2  0
 12 23  2  0
 23 24  1  0
 24 25  2  0
  8 26  1  0
 26 27  2  0
 27 28  1  0
 28 29  2  0
 29 30  1  0
 30  5  1  0
 29  7  1  0
 25 10  1  0
 22 13  1  0
M  END
$$$$
