
     RDKit          3D

 33 36  0  0  0  0  0  0  0  0999 V2000
  -13.8656   48.5476  -15.9571 C   0  0  0  0  0  0  0  0  0  0  0  0
  -12.7792   47.5780  -15.8899 N   0  0  0  0  0  0  0  0  0  0  0  0
  -12.5056   47.1155  -17.2261 C   0  0  0  0  0  0  0  0  0  0  0  0
  -13.4771   46.0481  -17.5552 C   0  0  0  0  0  0  0  0  0  0  0  0
  -14.4853   46.1980  -18.4838 C   0  0  0  0  0  0  0  0  0  0  0  0
  -15.3735   45.1493  -18.7509 C   0  0  0  0  0  0  0  0  0  0  0  0
  -15.2671   43.9423  -18.0969 C   0  0  0  0  0  0  0  0  0  0  0  0
  -16.1816   42.8425  -18.3625 C   0  0  0  0  0  0  0  0  0  0  0  0
  -16.8731   42.5979  -19.5587 C   0  0  0  0  0  0  0  0  0  0  0  0
  -17.6248   41.4711  -19.3992 C   0  0  0  0  0  0  0  0  0  0  0  0
  -18.5205   40.7757  -20.3068 C   0  0  0  0  0  0  0  0  0  0  0  0
  -19.0069   41.4146  -21.4065 N   0  0  0  0  0  0  0  0  0  0  0  0
  -19.8351   40.8369  -22.2842 C   0  0  0  0  0  0  0  0  0  0  0  0
  -20.2816   41.6402  -23.4232 C   0  0  0  0  0  0  0  0  0  0  0  0
  -19.4322   42.3981  -24.1948 C   0  0  0  0  0  0  0  0  0  0  0  0
  -19.8800   43.1551  -25.2743 C   0  0  0  0  0  0  0  0  0  0  0  0
  -21.2148   43.1632  -25.6028 C   0  0  0  0  0  0  0  0  0  0  0  0
  -21.7351   44.1157  -26.9509 S   0  0  0  0  0  6  0  0  0  0  0  0
  -23.0141   44.8202  -26.6067 O   0  0  0  0  0  0  0  0  0  0  0  0
  -20.6692   45.1393  -27.2567 O   0  0  0  0  0  0  0  0  0  0  0  0
  -21.9742   43.1522  -28.4117 C   0  0  0  0  0  0  0  0  0  0  0  0
  -23.3900   43.2108  -28.8967 C   0  0  0  0  0  0  0  0  0  0  0  0
  -20.9763   43.5057  -29.4926 C   0  0  0  0  0  0  0  0  0  0  0  0
  -22.0732   42.4078  -24.8365 C   0  0  0  0  0  0  0  0  0  0  0  0
  -21.6185   41.6702  -23.7803 C   0  0  0  0  0  0  0  0  0  0  0  0
  -20.2390   39.5291  -22.0997 C   0  0  0  0  0  0  0  0  0  0  0  0
  -19.7631   38.8927  -21.0170 N   0  0  0  0  0  0  0  0  0  0  0  0
  -18.9233   39.4842  -20.1303 C   0  0  0  0  0  0  0  0  0  0  0  0
  -18.4574   38.7442  -19.0005 N   0  0  0  0  0  0  0  0  0  0  0  0
  -17.3915   41.0611  -18.1603 O   0  0  0  0  0  0  0  0  0  0  0  0
  -16.5614   41.8428  -17.5520 N   0  0  0  0  0  0  0  0  0  0  0  0
  -14.2582   43.7992  -17.1708 C   0  0  0  0  0  0  0  0  0  0  0  0
  -13.3772   44.8369  -16.9048 C   0  0  0  0  0  0  0  0  0  0  0  0
  1  2  1  0
  2  3  1  0
  3  4  1  0
  4  5  2  0
  5  6  1  0
  6  7  2  0
  7  8  1  0
  8  9  1  0
  9 10  2  0
 10 11  1  0
 11 12  2  0
 12 13  1  0
 13 14  1  0
 14 15  2  0
 15 16  1  0
 16 17  2  0
 17 18  1  0
 18 19  2  0
 18 20  2  0
 18 21  1  0
 21 22  1  0
 21 23  1  0
 17 24  1  0
 24 25  2  0
 13 26  2  0
 26 27  1  0
 27 28  2  0
 28 29  1  0
 10 30  1  0
 30 31  1  0
  7 32  1  0
 32 33  2  0
 33  4  1  0
 31  8  2  0
 28 11  1  0
 25 14  1  0
M  END
$$$$
