
     RDKit          3D

 37 41  0  0  0  0  0  0  0  0999 V2000
  -24.3978   38.4444  -23.4267 C   0  0  0  0  0  0  0  0  0  0  0  0
  -23.3871   37.2890  -23.2812 C   0  0  0  0  0  0  0  0  0  0  0  0
  -23.9891   36.2707  -22.3965 C   0  0  0  0  0  0  0  0  0  0  0  0
  -23.4033   36.6590  -24.7033 C   0  0  0  0  0  0  0  0  0  0  0  0
  -23.2635   37.6778  -25.6588 O   0  0  0  0  0  0  0  0  0  0  0  0
  -22.0511   37.7718  -22.9963 C   0  0  0  0  0  0  0  0  0  0  0  0
  -21.7724   39.1363  -22.7499 C   0  0  0  0  0  0  0  0  0  0  0  0
  -20.4428   39.2437  -22.4712 C   0  0  0  0  0  0  0  0  0  0  0  0
  -19.6183   40.3384  -22.1486 C   0  0  0  0  0  0  0  0  0  0  0  0
  -18.2929   40.1561  -21.9052 C   0  0  0  0  0  0  0  0  0  0  0  0
  -17.4403   41.2343  -21.5796 N   0  0  0  0  0  0  0  0  0  0  0  0
  -17.8007   42.5782  -21.3694 C   0  0  0  0  0  0  0  0  0  0  0  0
  -19.0134   42.8806  -21.3003 O   0  0  0  0  0  0  0  0  0  0  0  0
  -16.7893   43.6860  -21.2183 C   0  0  0  0  0  0  0  0  0  0  0  0
  -16.1236   43.8356  -19.9135 C   0  0  0  0  0  0  0  0  0  0  0  0
  -16.7570   44.3666  -18.8140 C   0  0  0  0  0  0  0  0  0  0  0  0
  -16.1384   44.5247  -17.5991 C   0  0  0  0  0  0  0  0  0  0  0  0
  -14.8283   44.1475  -17.4318 C   0  0  0  0  0  0  0  0  0  0  0  0
  -14.1721   43.6137  -18.5134 C   0  0  0  0  0  0  0  0  0  0  0  0
  -14.7989   43.4553  -19.7396 C   0  0  0  0  0  0  0  0  0  0  0  0
  -12.8636   43.3126  -18.0898 O   0  0  0  0  0  0  0  0  0  0  0  0
  -12.6307   44.0029  -16.8578 C   0  0  0  0  0  0  0  0  0  0  0  0
  -12.0006   45.1980  -17.0414 F   0  0  0  0  0  0  0  0  0  0  0  0
  -11.9301   43.1845  -15.9891 F   0  0  0  0  0  0  0  0  0  0  0  0
  -13.9377   44.1738  -16.3631 O   0  0  0  0  0  0  0  0  0  0  0  0
  -17.1331   44.9116  -21.9874 C   0  0  0  0  0  0  0  0  0  0  0  0
  -16.0453   43.9987  -22.4755 C   0  0  0  0  0  0  0  0  0  0  0  0
  -17.7348   38.8705  -21.9737 C   0  0  0  0  0  0  0  0  0  0  0  0
  -16.3960   38.6862  -21.7276 F   0  0  0  0  0  0  0  0  0  0  0  0
  -18.5552   37.8247  -22.2888 C   0  0  0  0  0  0  0  0  0  0  0  0
  -19.8942   37.9842  -22.5390 C   0  0  0  0  0  0  0  0  0  0  0  0
  -20.9068   37.1130  -22.8631 N   0  0  0  0  0  0  0  0  0  0  0  0
  -20.6652   35.7210  -22.9943 C   0  0  0  0  0  0  0  0  0  0  0  0
  -20.4661   35.0150  -21.6843 C   0  0  1  0  0  0  0  0  0  0  0  0
  -21.6384   35.0780  -20.8945 O   0  0  0  0  0  0  0  0  0  0  0  0
  -20.1180   33.5542  -21.8700 C   0  0  0  0  0  0  0  0  0  0  0  0
  -18.8082   33.4560  -22.3507 O   0  0  0  0  0  0  0  0  0  0  0  0
  1  2  1  0
  2  3  1  0
  2  4  1  0
  4  5  1  0
  2  6  1  0
  6  7  2  0
  7  8  1  0
  8  9  2  0
  9 10  1  0
 10 11  1  0
 11 12  1  0
 12 13  2  0
 12 14  1  0
 14 15  1  0
 15 16  2  0
 16 17  1  0
 17 18  2  0
 18 19  1  0
 19 20  2  0
 19 21  1  0
 21 22  1  0
 22 23  1  0
 22 24  1  0
 22 25  1  0
 14 26  1  0
 26 27  1  0
 10 28  2  0
 28 29  1  0
 28 30  1  0
 30 31  2  0
 31 32  1  0
 32 33  1  0
 33 34  1  0
 34 35  1  1
 34 36  1  0
 36 37  1  0
 32  6  1  0
 31  8  1  0
 27 14  1  0
 20 15  1  0
 25 18  1  0
M  END
$$$$
