
     RDKit          3D

 29 33  0  0  0  0  0  0  0  0999 V2000
  -10.0684   10.2262  -26.1876 C   0  0  0  0  0  0  0  0  0  0  0  0
  -10.6475   11.5596  -26.4646 C   0  0  0  0  0  0  0  0  0  0  0  0
   -9.9341   12.6601  -25.7318 C   0  0  0  0  0  0  0  0  0  0  0  0
  -12.1680   11.6902  -26.4534 C   0  0  0  0  0  0  0  0  0  0  0  0
  -12.0639   12.6125  -27.5577 N   0  0  0  0  0  0  0  0  0  0  0  0
  -12.6446   13.7565  -28.1273 C   0  0  0  0  0  0  0  0  0  0  0  0
  -12.0334   14.8787  -27.9994 O   0  0  0  0  0  0  0  0  0  0  0  0
  -13.9042   13.8093  -28.8660 C   0  0  0  0  0  0  0  0  0  0  0  0
  -13.9309   13.5862  -30.2254 C   0  0  0  0  0  0  0  0  0  0  0  0
  -15.1232   13.6099  -30.8922 C   0  0  0  0  0  0  0  0  0  0  0  0
  -16.3292   13.8534  -30.2317 C   0  0  0  0  0  0  0  0  0  0  0  0
  -17.5292   13.8539  -31.0660 C   0  0  0  0  0  0  0  0  0  0  0  0
  -17.8735   12.7805  -31.8441 C   0  0  0  0  0  0  0  0  0  0  0  0
  -19.0125   12.7137  -32.6316 C   0  0  0  0  0  0  0  0  0  0  0  0
  -19.8475   13.8195  -32.6143 C   0  0  0  0  0  0  0  0  0  0  0  0
  -19.4902   14.8842  -31.8316 C   0  0  0  0  0  0  0  0  0  0  0  0
  -20.1039   16.0890  -31.6030 N   0  0  0  0  0  0  0  0  0  0  0  0
  -19.3804   16.8259  -30.7377 C   0  0  0  0  0  0  0  0  0  0  0  0
  -19.7317   18.1453  -30.2599 N   0  0  0  0  0  0  0  0  0  0  0  0
  -18.9540   18.7752  -29.2543 C   0  0  0  0  0  0  0  0  0  0  0  0
  -18.0277   18.1014  -28.7302 O   0  0  0  0  0  0  0  0  0  0  0  0
  -19.1559   20.1666  -28.7797 C   0  0  0  0  0  0  0  0  0  0  0  0
  -17.8355   20.8221  -28.2620 C   0  0  0  0  0  0  0  0  0  0  0  0
  -18.9235   20.4486  -27.3276 C   0  0  0  0  0  0  0  0  0  0  0  0
  -18.3212   16.0795  -30.4317 N   0  0  0  0  0  0  0  0  0  0  0  0
  -18.3743   14.9265  -31.0721 N   0  0  0  0  0  0  0  0  0  0  0  0
  -16.3329   14.0792  -28.8818 C   0  0  0  0  0  0  0  0  0  0  0  0
  -15.1165   14.0513  -28.2343 C   0  0  0  0  0  0  0  0  0  0  0  0
  -10.8711   11.8101  -27.9525 C   0  0  0  0  0  0  0  0  0  0  0  0
  1  2  1  0
  2  3  1  0
  2  4  1  0
  4  5  1  0
  5  6  1  0
  6  7  2  0
  6  8  1  0
  8  9  2  0
  9 10  1  0
 10 11  2  0
 11 12  1  0
 12 13  2  0
 13 14  1  0
 14 15  2  0
 15 16  1  0
 16 17  2  0
 17 18  1  0
 18 19  1  0
 19 20  1  0
 20 21  2  0
 20 22  1  0
 22 23  1  0
 23 24  1  0
 18 25  2  0
 25 26  1  0
 11 27  1  0
 27 28  2  0
  5 29  1  0
 29  2  1  0
 28  8  1  0
 26 12  1  0
 26 16  1  0
 24 22  1  0
M  END
$$$$
