
     RDKit          3D

 28 31  0  0  0  0  0  0  0  0999 V2000
   -5.5884   16.9403  -43.7032 C   0  0  0  0  0  0  0  0  0  0  0  0
   -5.7749   18.2634  -42.9935 C   0  0  0  0  0  0  0  0  0  0  0  0
   -4.4362   18.7893  -42.6015 C   0  0  0  0  0  0  0  0  0  0  0  0
   -6.6947   18.0179  -41.8247 C   0  0  0  0  0  0  0  0  0  0  0  0
   -8.0878   17.5814  -42.3208 C   0  0  0  0  0  0  0  0  0  0  0  0
   -8.9989   17.6520  -41.1273 C   0  0  0  0  0  0  0  0  0  0  0  0
  -10.4269   17.4485  -41.3544 C   0  0  1  0  0  0  0  0  0  0  0  0
  -11.1016   17.3520  -39.9674 C   0  0  0  0  0  0  0  0  0  0  0  0
  -11.2310   18.1596  -42.3068 C   0  0  1  0  0  0  0  0  0  0  0  0
  -10.9246   18.3205  -43.7255 C   0  0  0  0  0  0  0  0  0  0  0  0
  -12.2488   18.7035  -44.4266 C   0  0  0  0  0  0  0  0  0  0  0  0
  -13.1713   18.8744  -43.2906 C   0  0  1  0  0  0  0  0  0  0  0  0
  -14.6199   18.8208  -43.5474 C   0  0  2  0  0  0  0  0  0  0  0  0
  -15.0471   19.9293  -44.4876 C   0  0  0  0  0  0  0  0  0  0  0  0
  -16.4969   19.6704  -44.8399 C   0  0  0  0  0  0  0  0  0  0  0  0
  -17.2905   19.7236  -43.5673 C   0  0  0  0  0  0  0  0  0  0  0  0
  -18.4296   20.3932  -43.6055 C   0  0  0  0  0  0  0  0  0  0  0  0
  -19.2690   20.5051  -42.4345 C   0  0  0  0  0  0  0  0  0  0  0  0
  -20.3313   21.2018  -42.5072 O   0  0  0  0  0  0  0  0  0  0  0  0
  -18.8931   19.8234  -41.1909 C   0  0  0  0  0  0  0  0  0  0  0  0
  -17.3807   19.7700  -41.1312 C   0  0  0  0  0  0  0  0  0  0  0  0
  -16.8068   19.0546  -42.3405 C   0  0  1  0  0  0  0  0  0  0  0  0
  -17.3714   17.6413  -42.3437 C   0  0  0  0  0  0  0  0  0  0  0  0
  -15.3111   19.0558  -42.1964 C   0  0  1  0  0  0  0  0  0  0  0  0
  -14.8775   18.0356  -41.1941 C   0  0  0  0  0  0  0  0  0  0  0  0
  -13.3925   17.9861  -41.0363 C   0  0  0  0  0  0  0  0  0  0  0  0
  -12.7294   17.7447  -42.3464 C   0  0  2  0  0  0  0  0  0  0  0  0
  -12.9048   16.3930  -42.9337 C   0  0  0  0  0  0  0  0  0  0  0  0
  1  2  1  0
  2  3  1  0
  2  4  1  0
  4  5  1  0
  5  6  1  0
  6  7  1  0
  7  8  1  1
  7  9  1  0
  9 10  1  6
 10 11  1  0
 12 11  1  6
 12 13  1  0
 13 14  1  6
 14 15  1  0
 15 16  1  0
 16 17  2  0
 17 18  1  0
 18 19  2  0
 18 20  1  0
 20 21  1  0
 21 22  1  0
 22 23  1  6
 22 24  1  0
 24 25  1  1
 25 26  1  0
 26 27  1  0
 27 28  1  6
 27  9  1  0
 27 12  1  0
 24 13  1  0
 22 16  1  0
M  END
$$$$
