
     RDKit          3D

 11 10  0  0  0  0  0  0  0  0999 V2000
  -33.2965   12.2468  -17.0410 C   0  0  0  0  0  0  0  0  0  0  0  0
  -33.0664   12.1808  -18.5096 C   0  0  0  0  0  0  0  0  0  0  0  0
  -33.9329   11.6223  -19.1741 O   0  0  0  0  0  0  0  0  0  0  0  0
  -31.8375   12.7719  -19.1102 C   0  0  0  0  0  0  0  0  0  0  0  0
  -31.9187   12.8109  -20.5943 C   0  0  0  0  0  0  0  0  0  0  0  0
  -32.8031   12.2507  -21.2340 O   0  0  0  0  0  0  0  0  0  0  0  0
  -30.8509   13.5812  -21.3007 C   0  0  0  0  0  0  0  0  0  0  0  0
  -31.1836   13.8221  -22.7383 C   0  0  0  0  0  0  0  0  0  0  0  0
  -30.3123   13.0950  -23.6760 C   0  0  0  0  0  0  0  0  0  0  0  0
  -29.3410   12.4018  -23.2290 O   0  0  0  0  0  0  0  0  0  0  0  0
  -30.4894   13.1203  -25.0387 O   0  0  0  0  0  0  0  0  0  0  0  0
  1  2  1  0
  2  3  2  0
  2  4  1  0
  4  5  1  0
  5  6  2  0
  5  7  1  0
  7  8  1  0
  8  9  1  0
  9 10  2  0
  9 11  1  0
M  END
$$$$
