
     RDKit          3D

 30 32  0  0  0  0  0  0  0  0999 V2000
  -16.1920   44.1774  -18.9612 O   0  0  0  0  0  0  0  0  0  0  0  0
  -15.3250   43.6029  -19.6879 C   0  0  0  0  0  0  0  0  0  0  0  0
  -15.6569   43.3224  -21.0310 N   0  0  0  0  0  0  0  0  0  0  0  0
  -16.9603   43.6629  -21.6015 C   0  0  0  0  0  0  0  0  0  0  0  0
  -18.0433   42.7076  -21.1698 C   0  0  0  0  0  0  0  0  0  0  0  0
  -18.4903   41.9928  -22.2779 O   0  0  0  0  0  0  0  0  0  0  0  0
  -14.0300   43.2554  -19.1194 C   0  0  0  0  0  0  0  0  0  0  0  0
  -13.0424   42.7236  -19.9598 C   0  0  0  0  0  0  0  0  0  0  0  0
  -11.8052   42.3754  -19.4765 C   0  0  0  0  0  0  0  0  0  0  0  0
  -11.4876   42.5400  -18.1238 C   0  0  0  0  0  0  0  0  0  0  0  0
  -12.4305   43.0559  -17.2817 C   0  0  0  0  0  0  0  0  0  0  0  0
  -12.1705   43.2513  -15.8604 C   0  0  0  0  0  0  0  0  0  0  0  0
  -10.9491   43.1127  -15.3014 C   0  0  0  0  0  0  0  0  0  0  0  0
  -10.7208   43.3008  -13.9313 C   0  0  0  0  0  0  0  0  0  0  0  0
   -9.4200   43.1422  -13.3933 N   0  0  0  0  0  0  0  0  0  0  0  0
   -8.6848   41.9642  -13.6053 C   0  0  0  0  0  0  0  0  0  0  0  0
   -9.1658   40.7780  -13.0981 C   0  0  0  0  0  0  0  0  0  0  0  0
   -8.4352   39.6281  -13.3134 C   0  0  0  0  0  0  0  0  0  0  0  0
   -7.2455   39.6250  -14.0156 C   0  0  0  0  0  0  0  0  0  0  0  0
   -6.5455   38.4444  -14.2072 O   0  0  0  0  0  0  0  0  0  0  0  0
   -5.7686   37.9532  -13.1094 C   0  0  0  0  0  0  0  0  0  0  0  0
   -4.8038   38.8700  -12.7919 F   0  0  0  0  0  0  0  0  0  0  0  0
   -5.1380   36.7929  -13.5575 F   0  0  0  0  0  0  0  0  0  0  0  0
   -6.6117   37.7063  -12.0434 F   0  0  0  0  0  0  0  0  0  0  0  0
   -6.8076   40.8373  -14.5024 C   0  0  0  0  0  0  0  0  0  0  0  0
   -7.4917   42.0191  -14.3205 C   0  0  0  0  0  0  0  0  0  0  0  0
  -11.7836   43.6296  -13.1882 N   0  0  0  0  0  0  0  0  0  0  0  0
  -13.0167   43.7760  -13.7157 C   0  0  0  0  0  0  0  0  0  0  0  0
  -13.2030   43.5891  -15.0298 N   0  0  0  0  0  0  0  0  0  0  0  0
  -13.6849   43.4031  -17.8007 C   0  0  0  0  0  0  0  0  0  0  0  0
  1  2  2  0
  2  3  1  0
  3  4  1  0
  4  5  1  0
  5  6  1  0
  2  7  1  0
  7  8  2  0
  8  9  1  0
  9 10  2  0
 10 11  1  0
 11 12  1  0
 12 13  2  0
 13 14  1  0
 14 15  1  0
 15 16  1  0
 16 17  2  0
 17 18  1  0
 18 19  2  0
 19 20  1  0
 20 21  1  0
 21 22  1  0
 21 23  1  0
 21 24  1  0
 19 25  1  0
 25 26  2  0
 14 27  2  0
 27 28  1  0
 28 29  2  0
 11 30  2  0
 30  7  1  0
 29 12  1  0
 26 16  1  0
M  END
$$$$
