
     RDKit          3D

 30 32  0  0  0  0  0  0  0  0999 V2000
  -23.0216   34.7704  -25.1222 C   0  0  0  0  0  0  0  0  0  0  0  0
  -22.7492   35.6591  -26.2194 N   0  0  0  0  0  0  0  0  0  0  0  0
  -21.3601   35.7954  -26.5353 C   0  0  0  0  0  0  0  0  0  0  0  0
  -20.5597   36.5323  -25.4932 C   0  0  0  0  0  0  0  0  0  0  0  0
  -21.1860   37.8959  -25.2745 C   0  0  0  0  0  0  0  0  0  0  0  0
  -21.3795   38.2641  -23.5662 S   0  0  0  0  0  6  0  0  0  0  0  0
  -22.3366   37.2313  -22.9920 O   0  0  0  0  0  0  0  0  0  0  0  0
  -21.9557   39.6567  -23.3630 O   0  0  0  0  0  0  0  0  0  0  0  0
  -19.8600   38.1163  -22.7295 C   0  0  0  0  0  0  0  0  0  0  0  0
  -19.4933   36.8810  -22.2408 C   0  0  0  0  0  0  0  0  0  0  0  0
  -20.5726   35.5314  -22.4978 Cl  0  0  0  0  0  0  0  0  0  0  0  0
  -18.2997   36.7341  -21.5681 C   0  0  0  0  0  0  0  0  0  0  0  0
  -17.4814   37.8646  -21.3986 C   0  0  0  0  0  0  0  0  0  0  0  0
  -17.8111   39.0929  -21.8658 C   0  0  0  0  0  0  0  0  0  0  0  0
  -17.0400   40.2617  -21.7305 N   0  0  0  0  0  0  0  0  0  0  0  0
  -17.3338   41.3827  -20.9252 C   0  0  0  0  0  0  0  0  0  0  0  0
  -17.7669   41.2345  -19.7715 O   0  0  0  0  0  0  0  0  0  0  0  0
  -17.1580   42.7366  -21.3695 N   0  0  0  0  0  0  0  0  0  0  0  0
  -16.6142   43.7336  -20.5001 C   0  0  0  0  0  0  0  0  0  0  0  0
  -16.4783   43.5270  -19.1425 C   0  0  0  0  0  0  0  0  0  0  0  0
  -15.9609   44.4554  -18.2652 C   0  0  0  0  0  0  0  0  0  0  0  0
  -15.5534   45.6683  -18.7787 C   0  0  0  0  0  0  0  0  0  0  0  0
  -15.6700   45.9244  -20.1404 C   0  0  0  0  0  0  0  0  0  0  0  0
  -15.2712   47.1070  -20.6316 F   0  0  0  0  0  0  0  0  0  0  0  0
  -16.1957   44.9620  -20.9842 C   0  0  0  0  0  0  0  0  0  0  0  0
  -16.3578   45.2488  -22.7039 Cl  0  0  0  0  0  0  0  0  0  0  0  0
  -19.0330   39.2083  -22.5460 C   0  0  0  0  0  0  0  0  0  0  0  0
  -19.4113   40.4469  -23.0401 O   0  0  0  0  0  0  0  0  0  0  0  0
  -22.4391   38.0851  -26.0584 C   0  0  0  0  0  0  0  0  0  0  0  0
  -23.3964   36.9292  -25.9404 C   0  0  0  0  0  0  0  0  0  0  0  0
  1  2  1  0
  2  3  1  0
  3  4  1  0
  4  5  1  0
  5  6  1  0
  6  7  2  0
  6  8  2  0
  6  9  1  0
  9 10  2  0
 10 11  1  0
 10 12  1  0
 12 13  2  0
 13 14  1  0
 14 15  1  0
 15 16  1  0
 16 17  2  0
 16 18  1  0
 18 19  1  0
 19 20  2  0
 20 21  1  0
 21 22  2  0
 22 23  1  0
 23 24  1  0
 23 25  2  0
 25 26  1  0
 14 27  2  0
 27 28  1  0
  5 29  1  0
 29 30  1  0
 30  2  1  0
 27  9  1  0
 25 19  1  0
M  END
$$$$
