
     RDKit          3D

 24 25  0  0  0  0  0  0  0  0999 V2000
  -18.9013   38.8544  -24.6347 C   0  0  0  0  0  0  0  0  0  0  0  0
  -18.7210   37.8946  -23.5800 N   0  0  0  0  0  0  0  0  0  0  0  0
  -18.6452   38.3448  -22.2449 C   0  0  0  0  0  0  0  0  0  0  0  0
  -18.7979   39.6485  -21.9131 N   0  0  0  0  0  0  0  0  0  0  0  0
  -18.7296   40.1110  -20.6489 C   0  0  0  0  0  0  0  0  0  0  0  0
  -18.9048   41.5039  -20.4076 N   0  0  0  0  0  0  0  0  0  0  0  0
  -19.1450   42.4696  -21.3963 C   0  0  0  0  0  0  0  0  0  0  0  0
  -19.4495   42.2536  -22.7113 C   0  0  0  0  0  0  0  0  0  0  0  0
  -19.5921   43.4616  -23.2711 N   0  0  0  0  0  0  0  0  0  0  0  0
  -19.9191   43.6783  -24.6641 C   0  0  0  0  0  0  0  0  0  0  0  0
  -21.4263   43.6215  -24.7979 C   0  0  0  0  0  0  0  0  0  0  0  0
  -19.3482   42.5739  -25.5405 C   0  0  0  0  0  0  0  0  0  0  0  0
  -19.4496   44.9998  -25.1027 C   0  0  0  0  0  0  0  0  0  0  0  0
  -19.0652   46.0343  -25.4364 N   0  0  0  0  0  0  0  0  0  0  0  0
  -19.3969   44.4227  -22.3928 N   0  0  0  0  0  0  0  0  0  0  0  0
  -19.1197   43.8506  -21.2284 C   0  0  0  0  0  0  0  0  0  0  0  0
  -18.8195   44.5157  -19.9123 C   0  0  0  0  0  0  0  0  0  0  0  0
  -18.4980   39.2114  -19.6961 N   0  0  0  0  0  0  0  0  0  0  0  0
  -18.3328   37.9046  -19.9140 C   0  0  0  0  0  0  0  0  0  0  0  0
  -18.4097   37.4692  -21.2221 C   0  0  0  0  0  0  0  0  0  0  0  0
  -18.2346   36.0316  -21.5032 C   0  0  0  0  0  0  0  0  0  0  0  0
  -17.1526   35.9013  -22.3806 F   0  0  0  0  0  0  0  0  0  0  0  0
  -17.9678   35.3188  -20.3392 F   0  0  0  0  0  0  0  0  0  0  0  0
  -19.3318   35.4886  -22.1413 F   0  0  0  0  0  0  0  0  0  0  0  0
  1  2  1  0
  2  3  1  0
  3  4  2  0
  4  5  1  0
  5  6  1  0
  6  7  1  0
  7  8  2  0
  8  9  1  0
  9 10  1  0
 10 11  1  0
 10 12  1  0
 10 13  1  0
 13 14  3  0
  9 15  1  0
 15 16  2  0
 16 17  1  0
  5 18  2  0
 18 19  1  0
 19 20  2  0
 20 21  1  0
 21 22  1  0
 21 23  1  0
 21 24  1  0
 20  3  1  0
 16  7  1  0
M  END
$$$$
