
     RDKit          3D

 30 33  0  0  0  0  0  0  0  0999 V2000
  -39.7794    8.6390  -34.6952 C   0  0  0  0  0  0  0  0  0  0  0  0
  -41.2909    8.6014  -34.6500 C   0  0  1  0  0  0  0  0  0  0  0  0
  -41.6140    7.2264  -34.5097 O   0  0  0  0  0  0  0  0  0  0  0  0
  -42.8918    6.6880  -34.8833 C   0  0  0  0  0  0  0  0  0  0  0  0
  -43.5260    6.9600  -36.0526 C   0  0  0  0  0  0  0  0  0  0  0  0
  -44.7877    6.3805  -36.1724 C   0  0  0  0  0  0  0  0  0  0  0  0
  -45.2808    5.5629  -35.1562 C   0  0  0  0  0  0  0  0  0  0  0  0
  -44.6369    5.2857  -34.0205 N   0  0  0  0  0  0  0  0  0  0  0  0
  -43.4012    5.8819  -33.8955 C   0  0  0  0  0  0  0  0  0  0  0  0
  -42.7537    5.5433  -32.6666 N   0  0  0  0  0  0  0  0  0  0  0  0
  -45.8502    6.8299  -37.1077 C   0  0  0  0  0  0  0  0  0  0  0  0
  -46.1177    8.1873  -37.3335 C   0  0  0  0  0  0  0  0  0  0  0  0
  -47.1369    8.3039  -38.1487 N   0  0  0  0  0  0  0  0  0  0  0  0
  -47.5719    7.0946  -38.4874 N   0  0  0  0  0  0  0  0  0  0  0  0
  -48.6990    6.8012  -39.3707 C   0  0  0  0  0  0  0  0  0  0  0  0
  -46.8050    6.1788  -37.8654 C   0  0  0  0  0  0  0  0  0  0  0  0
  -46.9421    4.7942  -37.9397 C   0  0  0  0  0  0  0  0  0  0  0  0
  -47.0774    3.5205  -37.9892 N   0  0  0  0  0  0  0  0  0  0  0  0
  -45.2981    9.2490  -36.6331 C   0  0  0  0  0  0  0  0  0  0  0  0
  -45.3588    9.0920  -35.1847 N   0  0  0  0  0  0  0  0  0  0  0  0
  -46.7655    8.5710  -34.8381 C   0  0  0  0  0  0  0  0  0  0  0  0
  -44.5474    9.3078  -34.1085 C   0  0  0  0  0  0  0  0  0  0  0  0
  -45.1349    8.7459  -32.9942 O   0  0  0  0  0  0  0  0  0  0  0  0
  -43.2985    9.9061  -33.6451 C   0  0  0  0  0  0  0  0  0  0  0  0
  -43.5200   11.0207  -32.7687 C   0  0  0  0  0  0  0  0  0  0  0  0
  -42.5933   11.7843  -32.1611 C   0  0  0  0  0  0  0  0  0  0  0  0
  -41.2796   11.4819  -32.3908 C   0  0  0  0  0  0  0  0  0  0  0  0
  -40.2880   12.2319  -31.8041 F   0  0  0  0  0  0  0  0  0  0  0  0
  -41.0092   10.4326  -33.2104 C   0  0  0  0  0  0  0  0  0  0  0  0
  -41.9737    9.6060  -33.8643 C   0  0  0  0  0  0  0  0  0  0  0  0
  2  1  1  1
  2  3  1  0
  3  4  1  0
  4  5  1  0
  5  6  2  0
  6  7  1  0
  7  8  2  0
  8  9  1  0
  9 10  1  0
  6 11  1  0
 11 12  1  0
 12 13  2  0
 13 14  1  0
 14 15  1  0
 14 16  1  0
 16 17  1  0
 17 18  3  0
 12 19  1  0
 19 20  1  0
 20 21  1  0
 20 22  1  0
 22 23  2  0
 22 24  1  0
 24 25  2  0
 25 26  1  0
 26 27  2  0
 27 28  1  0
 27 29  1  0
 29 30  2  0
 30  2  1  0
  9  4  2  0
 16 11  2  0
 30 24  1  0
M  END
$$$$
