
     RDKit          3D

 20 20  0  0  0  0  0  0  0  0999 V2000
  -20.5768   42.5203  -18.9731 C   0  0  0  0  0  0  0  0  0  0  0  0
  -19.6266   41.3999  -18.6569 C   0  0  0  0  0  0  0  0  0  0  0  0
  -19.1275   40.6101  -19.7885 C   0  0  0  0  0  0  0  0  0  0  0  0
  -18.3808   41.1227  -20.8195 N   0  0  0  0  0  0  0  0  0  0  0  0
  -18.1071   40.1481  -21.8400 C   0  0  0  0  0  0  0  0  0  0  0  0
  -17.2172   39.0123  -21.4032 C   0  0  0  0  0  0  0  0  0  0  0  0
  -16.9951   38.0988  -22.5761 C   0  0  0  0  0  0  0  0  0  0  0  0
  -18.2605   42.4634  -21.1787 C   0  0  0  0  0  0  0  0  0  0  0  0
  -17.4883   43.3949  -20.3613 C   0  0  0  0  0  0  0  0  0  0  0  0
  -16.0410   43.2329  -20.2220 C   0  0  0  0  0  0  0  0  0  0  0  0
  -15.2682   42.4103  -21.0114 C   0  0  0  0  0  0  0  0  0  0  0  0
  -13.8857   42.3376  -20.8447 C   0  0  0  0  0  0  0  0  0  0  0  0
  -13.2945   43.1039  -19.8802 C   0  0  0  0  0  0  0  0  0  0  0  0
  -14.0574   43.9453  -19.0709 C   0  0  0  0  0  0  0  0  0  0  0  0
  -15.4345   44.0070  -19.2449 C   0  0  0  0  0  0  0  0  0  0  0  0
  -15.9763   44.9498  -18.2314 C   0  0  0  0  0  0  0  0  0  0  0  0
  -14.8143   45.5126  -17.5260 C   0  0  0  0  0  0  0  0  0  0  0  0
  -14.8380   46.4211  -16.6255 O   0  0  0  0  0  0  0  0  0  0  0  0
  -13.6718   44.8506  -18.0327 N   0  0  0  0  0  0  0  0  0  0  0  0
  -16.6148   42.4864  -19.9501 Cl  0  0  0  0  0  0  0  0  0  0  0  0
  1  2  1  0
  2  3  1  0
  3  4  1  0
  4  5  1  0
  5  6  1  0
  6  7  1  0
  4  8  1  0
  8  9  1  0
  9 10  1  0
 10 11  2  0
 11 12  1  0
 12 13  2  0
 13 14  1  0
 14 15  2  0
 15 16  1  0
 16 17  1  0
 17 18  2  0
 17 19  1  0
 15 10  1  0
 19 14  1  0
M  END
$$$$
