
     RDKit          3D

 10 10  0  0  0  0  0  0  0  0999 V2000
  -20.2762   30.0706  -22.5756 S   0  0  0  0  0  0  0  0  0  0  0  0
  -20.3013   30.2815  -24.1492 C   0  0  0  0  0  0  0  0  0  0  0  0
  -20.4986   30.7264  -25.3218 N   0  0  0  0  0  0  0  0  0  0  0  0
  -19.3449   31.0900  -26.1050 C   0  0  0  0  0  0  0  0  0  0  0  0
  -19.0564   32.5243  -25.8178 C   0  0  0  0  0  0  0  0  0  0  0  0
  -20.1104   33.3750  -25.6274 C   0  0  0  0  0  0  0  0  0  0  0  0
  -19.8488   34.7046  -25.3611 C   0  0  0  0  0  0  0  0  0  0  0  0
  -18.5419   35.1882  -25.2841 C   0  0  0  0  0  0  0  0  0  0  0  0
  -17.4861   34.3266  -25.4767 C   0  0  0  0  0  0  0  0  0  0  0  0
  -17.7601   33.0074  -25.7407 C   0  0  0  0  0  0  0  0  0  0  0  0
  1  2  2  0
  2  3  2  0
  3  4  1  0
  4  5  1  0
  5  6  2  0
  6  7  1  0
  7  8  2  0
  8  9  1  0
  9 10  2  0
 10  5  1  0
M  END
$$$$
