
     RDKit          3D

 24 26  0  0  0  0  0  0  0  0999 V2000
  -16.3826   14.4652  -32.6416 O   0  0  0  0  0  0  0  0  0  0  0  0
  -16.4106   14.8240  -31.4258 C   0  0  0  0  0  0  0  0  0  0  0  0
  -15.4945   14.1784  -30.4986 C   0  0  0  0  0  0  0  0  0  0  0  0
  -15.9305   13.3235  -29.4996 C   0  0  0  0  0  0  0  0  0  0  0  0
  -15.0281   12.7109  -28.6420 C   0  0  0  0  0  0  0  0  0  0  0  0
  -13.6646   12.9198  -28.7368 C   0  0  0  0  0  0  0  0  0  0  0  0
  -12.5836   12.1188  -27.6195 Cl  0  0  0  0  0  0  0  0  0  0  0  0
  -13.2267   13.7720  -29.7300 C   0  0  0  0  0  0  0  0  0  0  0  0
  -14.1181   14.3851  -30.5883 C   0  0  0  0  0  0  0  0  0  0  0  0
  -17.3397   15.8501  -30.9969 C   0  0  0  0  0  0  0  0  0  0  0  0
  -16.7443   17.0438  -30.5621 C   0  0  0  0  0  0  0  0  0  0  0  0
  -17.4940   18.1110  -30.1631 C   0  0  0  0  0  0  0  0  0  0  0  0
  -16.9046   19.3376  -29.7297 N   0  0  0  0  0  4  0  0  0  0  0  0
  -17.5709   20.2705  -29.2684 O   0  0  0  0  0  0  0  0  0  0  0  0
  -15.5531   19.4847  -29.8268 O   0  0  0  0  0  1  0  0  0  0  0  0
  -18.8716   17.9727  -30.2039 C   0  0  0  0  0  0  0  0  0  0  0  0
  -19.4581   16.8072  -30.6279 C   0  0  0  0  0  0  0  0  0  0  0  0
  -18.7078   15.7162  -31.0356 C   0  0  0  0  0  0  0  0  0  0  0  0
  -19.2902   14.5207  -31.4818 N   0  0  0  0  0  0  0  0  0  0  0  0
  -19.2351   13.9581  -32.8015 C   0  0  0  0  0  0  0  0  0  0  0  0
  -20.4095   12.9782  -32.8848 C   0  0  0  0  0  0  0  0  0  0  0  0
  -21.5751   13.5006  -32.3275 O   0  0  0  0  0  0  0  0  0  0  0  0
  -21.4755   13.7441  -30.9672 C   0  0  0  0  0  0  0  0  0  0  0  0
  -20.0396   13.7141  -30.4988 C   0  0  0  0  0  0  0  0  0  0  0  0
  1  2  2  0
  2  3  1  0
  3  4  2  0
  4  5  1  0
  5  6  2  0
  6  7  1  0
  6  8  1  0
  8  9  2  0
  2 10  1  0
 10 11  2  0
 11 12  1  0
 12 13  1  0
 13 14  2  0
 13 15  1  0
 12 16  2  0
 16 17  1  0
 17 18  2  0
 18 19  1  0
 19 20  1  0
 20 21  1  0
 21 22  1  0
 22 23  1  0
 23 24  1  0
  9  3  1  0
 18 10  1  0
 24 19  1  0
M  CHG  2  13   1  15  -1
M  END
$$$$
