
     RDKit          3D

 18 18  0  0  0  0  0  0  0  0999 V2000
  -17.2030   43.0101  -19.7650 O   0  0  0  0  0  0  0  0  0  0  0  0
  -18.2947   43.0377  -20.3847 C   0  0  0  0  0  0  0  0  0  0  0  0
  -19.0810   44.1671  -20.4661 O   0  0  0  0  0  1  0  0  0  0  0  0
  -18.7540   41.8176  -21.0504 C   0  0  0  0  0  0  0  0  0  0  0  0
  -18.0621   40.7009  -21.0192 C   0  0  0  0  0  0  0  0  0  0  0  0
  -18.4844   39.4660  -21.6685 C   0  0  0  0  0  0  0  0  0  0  0  0
  -19.6518   39.3345  -22.3840 C   0  0  0  0  0  0  0  0  0  0  0  0
  -19.9903   38.1315  -22.9746 C   0  0  0  0  0  0  0  0  0  0  0  0
  -19.2043   37.0051  -22.8923 C   0  0  0  0  0  0  0  0  0  0  0  0
  -19.6020   35.7490  -23.5343 C   0  0  0  0  0  0  0  0  0  0  0  0
  -20.3887   34.9023  -22.6842 N   0  0  0  0  0  0  0  0  0  0  0  0
  -19.9500   33.9577  -21.8431 C   0  0  0  0  0  0  0  0  0  0  0  0
  -21.0314   33.3752  -21.2141 C   0  0  0  0  0  0  0  0  0  0  0  0
  -22.1182   33.9964  -21.7022 N   0  0  0  0  0  0  0  0  0  0  0  0
  -21.7271   34.9229  -22.5942 C   0  0  0  0  0  0  0  0  0  0  0  0
  -18.0339   37.1403  -22.1738 C   0  0  0  0  0  0  0  0  0  0  0  0
  -17.6770   38.3277  -21.5779 C   0  0  0  0  0  0  0  0  0  0  0  0
  -19.3220   37.7631  -22.0139 Na  0  0  0  0  0 15  0  0  0  0  0  0
  1  2  2  0
  2  3  1  0
  2  4  1  0
  4  5  2  0
  5  6  1  0
  6  7  2  0
  7  8  1  0
  8  9  2  0
  9 10  1  0
 10 11  1  0
 11 12  1  0
 12 13  2  0
 13 14  1  0
 14 15  2  0
  9 16  1  0
 16 17  2  0
 17  6  1  0
 15 11  1  0
M  CHG  2   3  -1  18   1
M  END
$$$$
