
     RDKit          3D

 23 24  0  0  0  0  0  0  0  0999 V2000
  -13.7891   46.3600  -19.2509 C   0  0  0  0  0  0  0  0  0  0  0  0
  -15.2045   46.7543  -19.1603 C   0  0  0  0  0  0  0  0  0  0  0  0
  -16.1822   46.1707  -20.0042 N   0  0  0  0  0  0  0  0  0  0  0  0
  -16.8321   47.1128  -20.9701 C   0  0  0  0  0  0  0  0  0  0  0  0
  -18.0869   47.6903  -20.4335 C   0  0  0  0  0  0  0  0  0  0  0  0
  -16.6875   44.8825  -19.9796 C   0  0  0  0  0  0  0  0  0  0  0  0
  -16.7339   44.1248  -18.8056 C   0  0  0  0  0  0  0  0  0  0  0  0
  -17.1524   42.8320  -18.7929 C   0  0  0  0  0  0  0  0  0  0  0  0
  -17.5541   42.1971  -19.9322 C   0  0  0  0  0  0  0  0  0  0  0  0
  -18.0070   40.7832  -19.9093 C   0  0  0  0  0  0  0  0  0  0  0  0
  -18.1879   40.1302  -21.0026 N   0  0  0  0  0  0  0  0  0  0  0  0
  -18.9710   38.9626  -21.0917 N   0  0  0  0  0  0  0  0  0  0  0  0
  -18.7424   37.9240  -21.9873 C   0  0  0  0  0  0  0  0  0  0  0  0
  -18.0487   38.1862  -23.0239 O   0  0  0  0  0  0  0  0  0  0  0  0
  -19.2363   36.5686  -21.8243 C   0  0  0  0  0  0  0  0  0  0  0  0
  -20.3823   36.1223  -22.4319 C   0  0  0  0  0  0  0  0  0  0  0  0
  -20.8494   34.8131  -22.2654 C   0  0  0  0  0  0  0  0  0  0  0  0
  -20.1653   33.9173  -21.4754 C   0  0  0  0  0  0  0  0  0  0  0  0
  -20.6671   32.6300  -21.3403 O   0  0  0  0  0  0  0  0  0  0  0  0
  -19.0153   34.3581  -20.8630 C   0  0  0  0  0  0  0  0  0  0  0  0
  -18.5517   35.6453  -21.0240 C   0  0  0  0  0  0  0  0  0  0  0  0
  -17.5227   42.9030  -21.0945 C   0  0  0  0  0  0  0  0  0  0  0  0
  -17.0978   44.2133  -21.1107 C   0  0  0  0  0  0  0  0  0  0  0  0
  1  2  1  0
  2  3  1  0
  3  4  1  0
  4  5  1  0
  3  6  1  0
  6  7  2  0
  7  8  1  0
  8  9  2  0
  9 10  1  0
 10 11  2  0
 11 12  1  0
 12 13  1  0
 13 14  2  0
 13 15  1  0
 15 16  2  0
 16 17  1  0
 17 18  2  0
 18 19  1  0
 18 20  1  0
 20 21  2  0
  9 22  1  0
 22 23  2  0
 23  6  1  0
 21 15  1  0
M  END
$$$$
