
     RDKit          3D

 33 36  0  0  0  0  0  0  0  0999 V2000
  -29.2074   16.7725  -23.5263 C   0  0  0  0  0  0  0  0  0  0  0  0
  -27.9583   17.1070  -22.8009 C   0  0  0  0  0  0  0  0  0  0  0  0
  -27.3962   18.3821  -22.6746 C   0  0  0  0  0  0  0  0  0  0  0  0
  -26.2686   18.2645  -21.9678 N   0  0  0  0  0  0  0  0  0  0  0  0
  -26.0355   16.9851  -21.6088 C   0  0  0  0  0  0  0  0  0  0  0  0
  -25.0385   16.4002  -20.9153 N   0  0  0  0  0  0  0  0  0  0  0  0
  -25.0725   15.0721  -20.7233 C   0  0  0  0  0  0  0  0  0  0  0  0
  -26.0883   14.3712  -21.2216 N   0  0  0  0  0  0  0  0  0  0  0  0
  -27.1246   14.9141  -21.9311 C   0  0  0  0  0  0  0  0  0  0  0  0
  -28.1753   14.0627  -22.3820 N   0  0  0  0  0  0  0  0  0  0  0  0
  -29.4005   14.4736  -23.0090 C   0  0  0  0  0  0  0  0  0  0  0  0
  -30.5169   13.5097  -22.5630 C   0  0  0  0  0  0  0  0  0  0  0  0
  -30.3034   12.9677  -21.1899 C   0  0  0  0  0  0  0  0  0  0  0  0
  -30.4155   14.1142  -20.2152 C   0  0  0  0  0  0  0  0  0  0  0  0
  -31.7472   14.3317  -19.7412 N   0  0  0  0  0  0  0  0  0  0  0  0
  -31.4245   12.0281  -20.9182 C   0  0  0  0  0  0  0  0  0  0  0  0
  -31.9778   12.0413  -19.8035 O   0  0  0  0  0  0  0  0  0  0  0  0
  -31.9090   11.0975  -21.8793 N   0  0  0  0  0  0  0  0  0  0  0  0
  -32.4729    9.8491  -21.4844 C   0  0  0  0  0  0  0  0  0  0  0  0
  -32.3295    8.7721  -22.3420 C   0  0  0  0  0  0  0  0  0  0  0  0
  -32.8706    7.5622  -21.9701 C   0  0  0  0  0  0  0  0  0  0  0  0
  -33.5459    7.3750  -20.7878 C   0  0  0  0  0  0  0  0  0  0  0  0
  -33.6930    8.4577  -19.9198 C   0  0  0  0  0  0  0  0  0  0  0  0
  -34.3732    8.2656  -18.7312 O   0  0  0  0  0  0  0  0  0  0  0  0
  -33.7539    7.9725  -17.5233 C   0  0  0  0  0  0  0  0  0  0  0  0
  -33.7994    8.8501  -16.6285 O   0  0  0  0  0  0  0  0  0  0  0  0
  -33.0901    6.7503  -17.2719 N   0  0  0  0  0  0  0  0  0  0  0  0
  -33.0115    5.7656  -18.3285 C   0  0  0  0  0  0  0  0  0  0  0  0
  -32.4880    6.4504  -15.9977 C   0  0  0  0  0  0  0  0  0  0  0  0
  -33.1499    9.6655  -20.2966 C   0  0  0  0  0  0  0  0  0  0  0  0
  -29.0098   12.2349  -21.0921 C   0  0  0  0  0  0  0  0  0  0  0  0
  -28.0035   12.6361  -22.1796 C   0  0  0  0  0  0  0  0  0  0  0  0
  -27.1081   16.2577  -22.1379 C   0  0  0  0  0  0  0  0  0  0  0  0
  1  2  1  0
  2  3  2  0
  3  4  1  0
  4  5  1  0
  5  6  2  0
  6  7  1  0
  7  8  2  0
  8  9  1  0
  9 10  1  0
 10 11  1  0
 11 12  1  0
 12 13  1  0
 13 14  1  0
 14 15  1  0
 13 16  1  0
 16 17  2  0
 16 18  1  0
 18 19  1  0
 19 20  2  0
 20 21  1  0
 21 22  2  0
 22 23  1  0
 23 24  1  0
 24 25  1  0
 25 26  2  0
 25 27  1  0
 27 28  1  0
 27 29  1  0
 23 30  2  0
 13 31  1  0
 31 32  1  0
  9 33  2  0
 33  2  1  0
 33  5  1  0
 32 10  1  0
 30 19  1  0
M  END
$$$$
