
     RDKit          3D

 29 29  0  0  0  0  0  0  0  0999 V2000
  -14.5424   45.8985  -24.1361 C   0  0  0  0  0  0  0  0  0  0  0  0
  -15.3684   45.9987  -22.8643 C   0  0  0  0  0  0  0  0  0  0  0  0
  -16.1281   44.8393  -22.6937 O   0  0  0  0  0  0  0  0  0  0  0  0
  -16.9816   44.6132  -21.6455 C   0  0  0  0  0  0  0  0  0  0  0  0
  -17.1897   45.5105  -20.6323 C   0  0  0  0  0  0  0  0  0  0  0  0
  -18.0480   45.2710  -19.5881 C   0  0  0  0  0  0  0  0  0  0  0  0
  -18.7373   44.0778  -19.5452 C   0  0  0  0  0  0  0  0  0  0  0  0
  -18.5416   43.1416  -20.5707 C   0  0  0  0  0  0  0  0  0  0  0  0
  -17.6849   43.3916  -21.6054 C   0  0  0  0  0  0  0  0  0  0  0  0
  -17.4790   42.5103  -22.6078 O   0  0  0  0  0  0  0  0  0  0  0  0
  -17.9669   41.2766  -22.9484 C   0  0  0  0  0  0  0  0  0  0  0  0
  -19.4107   41.1614  -23.2782 C   0  0  0  0  0  0  0  0  0  0  0  0
  -19.8022   39.8598  -23.6380 N   0  0  0  0  0  0  0  0  0  0  0  0
  -19.8549   38.8160  -22.6892 C   0  0  2  0  0  0  0  0  0  0  0  0
  -18.5718   38.2703  -22.1830 C   0  0  0  0  0  0  0  0  0  0  0  0
  -20.6838   37.6963  -23.3051 C   0  0  0  0  0  0  0  0  0  0  0  0
  -20.8124   36.5645  -22.3865 C   0  0  0  0  0  0  0  0  0  0  0  0
  -21.7836   36.6809  -21.3750 C   0  0  0  0  0  0  0  0  0  0  0  0
  -21.9828   35.6211  -20.5258 C   0  0  0  0  0  0  0  0  0  0  0  0
  -21.2559   34.4442  -20.6381 C   0  0  0  0  0  0  0  0  0  0  0  0
  -21.4623   33.3721  -19.7743 O   0  0  0  0  0  0  0  0  0  0  0  0
  -22.4524   33.5231  -18.7651 C   0  0  0  0  0  0  0  0  0  0  0  0
  -20.3136   34.3694  -21.6418 C   0  0  0  0  0  0  0  0  0  0  0  0
  -19.4064   32.8647  -21.7492 S   0  0  0  0  0  6  0  0  0  0  0  0
  -18.2659   32.9449  -23.0555 N   0  0  0  0  0  0  0  0  0  0  0  0
  -20.2881   31.6828  -21.9002 O   0  0  0  0  0  0  0  0  0  0  0  0
  -18.6005   32.6932  -20.4900 O   0  0  0  0  0  0  0  0  0  0  0  0
  -20.0877   35.4111  -22.5106 C   0  0  0  0  0  0  0  0  0  0  0  0
  -19.2151   38.8531  -21.8047 Cl  0  0  0  0  0  0  0  0  0  0  0  0
  1  2  1  0
  2  3  1  0
  3  4  1  0
  4  5  2  0
  5  6  1  0
  6  7  2  0
  7  8  1  0
  8  9  2  0
  9 10  1  0
 10 11  1  0
 11 12  1  0
 12 13  1  0
 13 14  1  0
 14 15  1  6
 14 16  1  0
 16 17  1  0
 17 18  2  0
 18 19  1  0
 19 20  2  0
 20 21  1  0
 21 22  1  0
 20 23  1  0
 23 24  1  0
 24 25  1  0
 24 26  2  0
 24 27  2  0
 23 28  2  0
  9  4  1  0
 28 17  1  0
M  END
$$$$
