
     RDKit          3D

 41 46  0  0  0  0  0  0  0  0999 V2000
  -21.1625   33.7080  -21.0064 C   0  0  0  0  0  0  0  0  0  0  0  0
  -20.4151   34.8155  -21.7074 C   0  0  0  0  0  0  0  0  0  0  0  0
  -20.2742   35.9179  -20.8513 O   0  0  0  0  0  0  0  0  0  0  0  0
  -19.9027   37.0102  -21.6313 C   0  0  0  0  0  0  0  0  0  0  0  0
  -20.9281   37.3072  -22.4908 O   0  0  0  0  0  0  0  0  0  0  0  0
  -20.9814   38.6726  -22.8431 C   0  0  0  0  0  0  0  0  0  0  0  0
  -21.8102   39.3669  -21.8271 C   0  0  0  0  0  0  0  0  0  0  0  0
  -21.5245   40.8433  -21.6718 C   0  0  0  0  0  0  0  0  0  0  0  0
  -22.1657   41.2800  -20.5380 O   0  0  0  0  0  0  0  0  0  0  0  0
  -20.0140   41.0538  -21.5403 C   0  0  0  0  0  0  0  0  0  0  0  0
  -19.5096   40.0996  -20.4548 C   0  0  0  0  0  0  0  0  0  0  0  0
  -19.9099   40.5542  -19.1883 O   0  0  0  0  0  0  0  0  0  0  0  0
  -19.7109   42.4473  -21.0986 C   0  0  0  0  0  0  0  0  0  0  0  0
  -20.3614   43.5083  -21.9417 C   0  0  0  0  0  0  0  0  0  0  0  0
  -21.7574   43.5174  -21.8400 O   0  0  0  0  0  0  0  0  0  0  0  0
  -19.8890   44.8833  -21.6079 C   0  0  0  0  0  0  0  0  0  0  0  0
  -18.9803   44.9830  -20.4367 C   0  0  0  0  0  0  0  0  0  0  0  0
  -19.6378   44.8586  -19.0901 C   0  0  0  0  0  0  0  0  0  0  0  0
  -18.2644   46.3192  -20.4496 C   0  0  0  0  0  0  0  0  0  0  0  0
  -19.1346   47.4745  -20.6365 C   0  0  0  0  0  0  0  0  0  0  0  0
  -19.0528   48.6161  -19.9446 C   0  0  0  0  0  0  0  0  0  0  0  0
  -20.0920   49.5136  -20.4265 C   0  0  0  0  0  0  0  0  0  0  0  0
  -20.3552   50.6895  -20.0373 O   0  0  0  0  0  0  0  0  0  0  0  0
  -20.7843   48.8752  -21.4138 O   0  0  0  0  0  0  0  0  0  0  0  0
  -20.2453   47.5930  -21.6034 C   0  0  0  0  0  0  0  0  0  0  0  0
  -17.2082   46.1849  -21.5096 C   0  0  0  0  0  0  0  0  0  0  0  0
  -16.7998   44.7351  -21.4205 C   0  0  0  0  0  0  0  0  0  0  0  0
  -17.8276   44.0127  -20.6129 C   0  0  0  0  0  0  0  0  0  0  0  0
  -17.2803   43.9014  -19.3062 O   0  0  0  0  0  0  0  0  0  0  0  0
  -18.2200   42.6736  -21.1329 C   0  0  0  0  0  0  0  0  0  0  0  0
  -17.6330   42.3781  -22.4983 C   0  0  0  0  0  0  0  0  0  0  0  0
  -17.9737   40.9964  -22.9762 C   0  0  0  0  0  0  0  0  0  0  0  0
  -19.4176   40.6373  -22.8353 C   0  0  0  0  0  0  0  0  0  0  0  0
  -20.1930   41.1743  -23.8920 O   0  0  0  0  0  0  0  0  0  0  0  0
  -19.5753   39.1403  -22.9806 C   0  0  0  0  0  0  0  0  0  0  0  0
  -18.6427   36.7482  -22.4177 C   0  0  0  0  0  0  0  0  0  0  0  0
  -17.6780   37.7273  -22.0889 O   0  0  0  0  0  0  0  0  0  0  0  0
  -18.0292   35.4173  -22.1151 C   0  0  0  0  0  0  0  0  0  0  0  0
  -17.1341   35.0894  -23.1568 O   0  0  0  0  0  0  0  0  0  0  0  0
  -19.0395   34.2925  -22.0630 C   0  0  0  0  0  0  0  0  0  0  0  0
  -18.6204   33.4072  -21.0617 O   0  0  0  0  0  0  0  0  0  0  0  0
  1  2  1  0
  2  3  1  0
  3  4  1  0
  4  5  1  0
  5  6  1  0
  6  7  1  0
  7  8  1  0
  8  9  1  0
  8 10  1  0
 10 11  1  0
 11 12  1  0
 10 13  1  0
 13 14  1  0
 14 15  1  0
 14 16  1  0
 16 17  1  0
 17 18  1  0
 17 19  1  0
 19 20  1  0
 20 21  2  0
 21 22  1  0
 22 23  2  0
 22 24  1  0
 24 25  1  0
 19 26  1  0
 26 27  1  0
 27 28  1  0
 28 29  1  0
 28 30  1  0
 30 31  1  0
 31 32  1  0
 32 33  1  0
 33 34  1  0
 33 35  1  0
  4 36  1  0
 36 37  1  0
 36 38  1  0
 38 39  1  0
 38 40  1  0
 40 41  1  0
 40  2  1  0
 35  6  1  0
 33 10  1  0
 30 13  1  0
 28 17  1  0
 25 20  1  0
M  END
$$$$
