
     RDKit          3D

 33 35  0  0  0  0  0  0  0  0999 V2000
  -19.0360   16.2569  -33.1920 C   0  0  0  0  0  0  0  0  0  0  0  0
  -18.9644   17.1803  -34.3904 C   0  0  0  0  0  0  0  0  0  0  0  0
  -19.1846   16.2990  -35.6273 C   0  0  0  0  0  0  0  0  0  0  0  0
  -17.6090   17.7790  -34.4138 C   0  0  0  0  0  0  0  0  0  0  0  0
  -16.8159   17.4117  -35.3150 O   0  0  0  0  0  0  0  0  0  0  0  0
  -17.1773   18.7417  -33.4662 N   0  0  0  0  0  0  0  0  0  0  0  0
  -16.2338   18.4540  -32.4201 C   0  0  0  0  0  0  0  0  0  0  0  0
  -16.8602   18.4952  -31.0541 C   0  0  0  0  0  0  0  0  0  0  0  0
  -18.1453   19.0468  -31.1887 F   0  0  0  0  0  0  0  0  0  0  0  0
  -16.9332   17.2760  -30.4643 F   0  0  0  0  0  0  0  0  0  0  0  0
  -16.0981   19.4651  -30.1646 C   0  0  0  0  0  0  0  0  0  0  0  0
  -16.2097   19.0010  -28.8589 F   0  0  0  0  0  0  0  0  0  0  0  0
  -14.7651   19.3850  -30.5532 F   0  0  0  0  0  0  0  0  0  0  0  0
  -16.5268   20.7523  -30.3101 F   0  0  0  0  0  0  0  0  0  0  0  0
  -20.0310   18.1872  -34.3929 C   0  0  0  0  0  0  0  0  0  0  0  0
  -20.7253   18.4698  -33.3567 O   0  0  0  0  0  0  0  0  0  0  0  0
  -20.3886   18.9446  -35.5627 N   0  0  0  0  0  0  0  0  0  0  0  0
  -20.4682   18.3630  -36.8705 C   0  0  2  0  0  0  0  0  0  0  0  0
  -19.7337   19.2117  -37.8384 C   0  0  0  0  0  0  0  0  0  0  0  0
  -18.5232   18.9215  -37.9407 O   0  0  0  0  0  0  0  0  0  0  0  0
  -20.1268   20.2985  -38.6823 N   0  0  0  0  0  0  0  0  0  0  0  0
  -21.4328   20.8794  -38.6207 C   0  0  0  0  0  0  0  0  0  0  0  0
  -21.4216   22.2186  -38.9387 C   0  0  0  0  0  0  0  0  0  0  0  0
  -22.5948   22.9483  -38.8910 C   0  0  0  0  0  0  0  0  0  0  0  0
  -23.7703   22.3207  -38.5219 C   0  0  0  0  0  0  0  0  0  0  0  0
  -23.8130   20.9598  -38.1928 C   0  0  0  0  0  0  0  0  0  0  0  0
  -22.6289   20.2714  -38.2551 C   0  0  0  0  0  0  0  0  0  0  0  0
  -22.8088   18.8829  -37.9284 C   0  0  0  0  0  0  0  0  0  0  0  0
  -24.0405   18.4282  -38.2913 C   0  0  0  0  0  0  0  0  0  0  0  0
  -24.3770   17.1088  -38.0287 C   0  0  0  0  0  0  0  0  0  0  0  0
  -23.4485   16.2825  -37.4033 C   0  0  0  0  0  0  0  0  0  0  0  0
  -22.1900   16.7840  -37.0463 C   0  0  0  0  0  0  0  0  0  0  0  0
  -21.8532   18.0853  -37.3031 C   0  0  0  0  0  0  0  0  0  0  0  0
  1  2  1  0
  2  3  1  0
  2  4  1  0
  4  5  2  0
  4  6  1  0
  6  7  1  0
  7  8  1  0
  8  9  1  0
  8 10  1  0
  8 11  1  0
 11 12  1  0
 11 13  1  0
 11 14  1  0
  2 15  1  0
 15 16  2  0
 15 17  1  0
 18 17  1  1
 18 19  1  0
 19 20  2  0
 19 21  1  0
 21 22  1  0
 22 23  2  0
 23 24  1  0
 24 25  2  0
 25 26  1  0
 26 27  2  0
 27 28  1  0
 28 29  2  0
 29 30  1  0
 30 31  2  0
 31 32  1  0
 32 33  2  0
 33 18  1  0
 27 22  1  0
 33 28  1  0
M  END
$$$$
