
     RDKit          3D

 20 20  0  0  0  0  0  0  0  0999 V2000
  -22.0610   21.4604  -28.0526 C   0  0  0  0  0  0  0  0  0  0  0  0
  -22.1980   20.7333  -29.3601 C   0  0  0  0  0  0  0  0  0  0  0  0
  -20.8848   20.2831  -29.7308 O   0  0  0  0  0  0  0  0  0  0  0  0
  -20.6008   18.9355  -29.8083 C   0  0  0  0  0  0  0  0  0  0  0  0
  -21.5624   18.1315  -29.8533 O   0  0  0  0  0  0  0  0  0  0  0  0
  -19.2959   18.3991  -29.8407 N   0  0  0  0  0  0  0  0  0  0  0  0
  -19.0420   16.9535  -29.9717 C   0  0  0  0  0  0  0  0  0  0  0  0
  -17.5792   16.6989  -30.0271 C   0  0  0  0  0  0  0  0  0  0  0  0
  -17.1345   15.7294  -31.0679 C   0  0  0  0  0  0  0  0  0  0  0  0
  -16.2577   14.7017  -30.4783 C   0  0  0  0  0  0  0  0  0  0  0  0
  -15.0419   14.6969  -30.7641 O   0  0  0  0  0  0  0  0  0  0  0  0
  -16.8276   13.7519  -29.6046 N   0  0  0  0  0  0  0  0  0  0  0  0
  -16.3880   12.3894  -29.6281 C   0  0  0  0  0  0  0  0  0  0  0  0
  -15.9392   11.9767  -28.2734 C   0  0  0  0  0  0  0  0  0  0  0  0
  -14.4988   12.2314  -28.0257 C   0  0  0  0  0  0  0  0  0  0  0  0
  -13.5237   11.3479  -28.3919 C   0  0  0  0  0  0  0  0  0  0  0  0
  -12.1916   11.5822  -28.1623 C   0  0  0  0  0  0  0  0  0  0  0  0
  -11.8131   12.7560  -27.5364 C   0  0  0  0  0  0  0  0  0  0  0  0
  -12.7742   13.6669  -27.1552 C   0  0  0  0  0  0  0  0  0  0  0  0
  -14.1200   13.4005  -27.4021 C   0  0  0  0  0  0  0  0  0  0  0  0
  1  2  1  0
  2  3  1  0
  3  4  1  0
  4  5  2  0
  4  6  1  0
  6  7  1  0
  7  8  1  0
  8  9  1  0
  9 10  1  0
 10 11  2  0
 10 12  1  0
 12 13  1  0
 13 14  1  0
 14 15  1  0
 15 16  2  0
 16 17  1  0
 17 18  2  0
 18 19  1  0
 19 20  2  0
 20 15  1  0
M  END
$$$$
