
     RDKit          3D

 28 31  0  0  0  0  0  0  0  0999 V2000
  -16.0306   44.7971  -17.7808 C   0  0  0  0  0  0  0  0  0  0  0  0
  -16.2286   44.4974  -19.1830 N   0  0  0  0  0  0  0  0  0  0  0  0
  -16.6143   43.1670  -19.5060 C   0  0  0  0  0  0  0  0  0  0  0  0
  -16.9646   42.4988  -18.4991 O   0  0  0  0  0  0  0  0  0  0  0  0
  -16.6871   42.4153  -20.7726 C   0  0  1  0  0  0  0  0  0  0  0  0
  -18.0092   42.5961  -21.3196 N   0  0  0  0  0  0  0  0  0  0  0  0
  -18.5997   41.5637  -22.0939 C   0  0  0  0  0  0  0  0  0  0  0  0
  -18.5802   41.6940  -23.3440 O   0  0  0  0  0  0  0  0  0  0  0  0
  -19.2134   40.3826  -21.4668 C   0  0  0  0  0  0  0  0  0  0  0  0
  -20.1028   39.5351  -21.9611 N   0  0  0  0  0  0  0  0  0  0  0  0
  -20.3961   38.5929  -21.0477 C   0  0  0  0  0  0  0  0  0  0  0  0
  -21.3555   37.4431  -21.1980 C   0  0  0  0  0  0  0  0  0  0  0  0
  -20.6027   36.3331  -21.8334 C   0  0  0  0  0  0  0  0  0  0  0  0
  -20.3435   36.3711  -23.1791 C   0  0  0  0  0  0  0  0  0  0  0  0
  -19.6487   35.3446  -23.7604 C   0  0  0  0  0  0  0  0  0  0  0  0
  -19.1933   34.2588  -23.0348 C   0  0  0  0  0  0  0  0  0  0  0  0
  -19.4757   34.2622  -21.6891 C   0  0  0  0  0  0  0  0  0  0  0  0
  -20.1714   35.2788  -21.0764 C   0  0  0  0  0  0  0  0  0  0  0  0
  -19.6537   38.8876  -19.9651 N   0  0  0  0  0  0  0  0  0  0  0  0
  -18.9379   39.9702  -20.2177 N   0  0  0  0  0  0  0  0  0  0  0  0
  -15.6791   42.9024  -21.7954 C   0  0  0  0  0  0  0  0  0  0  0  0
  -15.9765   44.2222  -22.2401 O   0  0  0  0  0  0  0  0  0  0  0  0
  -15.9130   45.4296  -21.5183 C   0  0  0  0  0  0  0  0  0  0  0  0
  -15.7219   46.5362  -22.2969 C   0  0  0  0  0  0  0  0  0  0  0  0
  -15.6454   47.7752  -21.6778 C   0  0  0  0  0  0  0  0  0  0  0  0
  -15.7611   47.8766  -20.3039 C   0  0  0  0  0  0  0  0  0  0  0  0
  -15.9549   46.7694  -19.4967 C   0  0  0  0  0  0  0  0  0  0  0  0
  -16.0281   45.5386  -20.1416 C   0  0  0  0  0  0  0  0  0  0  0  0
  1  2  1  0
  2  3  1  0
  3  4  2  0
  3  5  1  0
  5  6  1  6
  6  7  1  0
  7  8  2  0
  7  9  1  0
  9 10  2  0
 10 11  1  0
 11 12  1  0
 12 13  1  0
 13 14  2  0
 14 15  1  0
 15 16  2  0
 16 17  1  0
 17 18  2  0
 11 19  2  0
 19 20  1  0
  5 21  1  0
 21 22  1  0
 22 23  1  0
 23 24  2  0
 24 25  1  0
 25 26  2  0
 26 27  1  0
 27 28  2  0
 28  2  1  0
 20  9  1  0
 28 23  1  0
 18 13  1  0
M  END
$$$$
