
     RDKit          3D

 27 29  0  0  0  0  0  0  0  0999 V2000
  -23.7441   21.9551  -40.5928 C   0  0  0  0  0  0  0  0  0  0  0  0
  -22.4011   21.4453  -40.3301 C   0  0  0  0  0  0  0  0  0  0  0  0
  -22.2352   20.1660  -39.6462 N   0  0  0  0  0  0  0  0  0  0  0  0
  -20.8558   19.7029  -39.5535 C   0  0  0  0  0  0  0  0  0  0  0  0
  -19.7788   20.3408  -39.9991 C   0  0  0  0  0  0  0  0  0  0  0  0
  -18.4620   19.8049  -39.8619 C   0  0  0  0  0  0  0  0  0  0  0  0
  -18.2420   18.4810  -39.2394 C   0  0  0  0  0  0  0  0  0  0  0  0
  -17.4054   20.4819  -40.2792 C   0  0  0  0  0  0  0  0  0  0  0  0
  -17.5362   21.7676  -40.8692 C   0  0  0  0  0  0  0  0  0  0  0  0
  -18.4278   23.1321  -40.1125 S   0  0  0  0  0  0  0  0  0  0  0  0
  -18.1326   24.3202  -41.4695 C   0  0  0  0  0  0  0  0  0  0  0  0
  -18.5147   25.6131  -41.6258 C   0  0  0  0  0  0  0  0  0  0  0  0
  -18.1409   26.2814  -42.7845 C   0  0  0  0  0  0  0  0  0  0  0  0
  -17.4019   25.5542  -43.6839 C   0  0  0  0  0  0  0  0  0  0  0  0
  -17.0333   24.2562  -43.4981 C   0  0  0  0  0  0  0  0  0  0  0  0
  -17.4062   23.5458  -42.3129 C   0  0  0  0  0  0  0  0  0  0  0  0
  -17.1141   22.3130  -42.0306 N   0  0  0  0  0  4  0  0  0  0  0  0
  -16.3146   21.4040  -42.9343 C   0  0  0  0  0  0  0  0  0  0  0  0
  -14.8598   21.5317  -42.5904 C   0  0  0  0  0  0  0  0  0  0  0  0
  -20.9520   18.1374  -38.7322 S   0  0  0  0  0  0  0  0  0  0  0  0
  -22.7057   18.1696  -38.4740 C   0  0  0  0  0  0  0  0  0  0  0  0
  -23.4700   17.2377  -37.8345 C   0  0  0  0  0  0  0  0  0  0  0  0
  -24.8256   17.4098  -37.7366 C   0  0  0  0  0  0  0  0  0  0  0  0
  -25.3249   18.5494  -38.3118 C   0  0  0  0  0  0  0  0  0  0  0  0
  -24.5667   19.4861  -38.9523 C   0  0  0  0  0  0  0  0  0  0  0  0
  -23.1645   19.3217  -39.0607 C   0  0  0  0  0  0  0  0  0  0  0  0
  -19.8357   21.1570  -40.6320 I   0  0  0  0  0 15  0  0  0  0  0  0
  1  2  1  0
  2  3  1  0
  3  4  1  0
  4  5  2  3
  5  6  1  0
  6  7  1  0
  6  8  2  3
  8  9  1  0
  9 10  1  0
 10 11  1  0
 11 12  2  0
 12 13  1  0
 13 14  2  0
 14 15  1  0
 15 16  2  0
 16 17  1  0
 17 18  1  0
 18 19  1  0
  4 20  1  0
 20 21  1  0
 21 22  2  0
 22 23  1  0
 23 24  2  0
 24 25  1  0
 25 26  2  0
 26  3  1  0
 17  9  2  0
 26 21  1  0
 16 11  1  0
M  CHG  2  17   1  27  -1
M  END
$$$$
