
     RDKit          3D

 24 25  0  0  0  0  0  0  0  0999 V2000
  -19.5513   42.4177  -16.6904 C   0  0  0  0  0  0  0  0  0  0  0  0
  -18.7314   42.4270  -17.8246 O   0  0  0  0  0  0  0  0  0  0  0  0
  -18.9109   41.6160  -18.9207 C   0  0  0  0  0  0  0  0  0  0  0  0
  -19.7021   40.5089  -18.9429 C   0  0  0  0  0  0  0  0  0  0  0  0
  -19.8532   39.7282  -20.0539 C   0  0  0  0  0  0  0  0  0  0  0  0
  -19.1925   40.0440  -21.2194 C   0  0  0  0  0  0  0  0  0  0  0  0
  -19.3723   39.2341  -22.3116 C   0  0  0  0  0  0  0  0  0  0  0  0
  -20.2316   38.0560  -22.2715 C   0  0  0  0  0  0  0  0  0  0  0  0
  -19.5122   36.6167  -21.9678 S   0  0  0  0  0  0  0  0  0  0  0  0
  -21.6336   38.1280  -22.4736 N   0  0  0  0  0  0  0  0  0  0  0  0
  -22.4917   37.0492  -22.0410 C   0  0  0  0  0  0  0  0  0  0  0  0
  -22.2097   39.2763  -23.1172 C   0  0  0  0  0  0  0  0  0  0  0  0
  -22.2999   39.1507  -24.5813 C   0  0  0  0  0  0  0  0  0  0  0  0
  -21.3207   39.4642  -25.2857 O   0  0  0  0  0  0  0  0  0  0  0  0
  -23.4398   38.6947  -25.2076 O   0  0  0  0  0  0  0  0  0  0  0  0
  -18.6906   39.5854  -23.4670 C   0  0  0  0  0  0  0  0  0  0  0  0
  -17.8845   40.6760  -23.5181 C   0  0  0  0  0  0  0  0  0  0  0  0
  -17.7230   41.4754  -22.3967 C   0  0  0  0  0  0  0  0  0  0  0  0
  -18.3676   41.1841  -21.2244 C   0  0  0  0  0  0  0  0  0  0  0  0
  -18.2180   41.9692  -20.1002 C   0  0  0  0  0  0  0  0  0  0  0  0
  -17.3710   43.1750  -20.0341 C   0  0  0  0  0  0  0  0  0  0  0  0
  -17.8159   44.3275  -20.5391 F   0  0  0  0  0  0  0  0  0  0  0  0
  -17.0281   43.3989  -18.6754 F   0  0  0  0  0  0  0  0  0  0  0  0
  -16.1450   42.9098  -20.6975 F   0  0  0  0  0  0  0  0  0  0  0  0
  1  2  1  0
  2  3  1  0
  3  4  2  0
  4  5  1  0
  5  6  2  0
  6  7  1  0
  7  8  1  0
  8  9  2  0
  8 10  1  0
 10 11  1  0
 10 12  1  0
 12 13  1  0
 13 14  2  0
 13 15  1  0
  7 16  2  0
 16 17  1  0
 17 18  2  0
 18 19  1  0
 19 20  2  0
 20 21  1  0
 21 22  1  0
 21 23  1  0
 21 24  1  0
 20  3  1  0
 19  6  1  0
M  END
$$$$
