
     RDKit          3D

 24 26  0  0  0  0  0  0  0  0999 V2000
  -27.8228   12.5875  -25.9655 C   0  0  0  0  0  0  0  0  0  0  0  0
  -28.3080   12.6306  -24.5632 C   0  0  0  0  0  0  0  0  0  0  0  0
  -28.8500   11.6476  -23.9107 O   0  0  0  0  0  0  0  0  0  0  0  0
  -29.1475   12.0475  -22.7138 N   0  0  0  0  0  0  0  0  0  0  0  0
  -28.7912   13.3622  -22.5481 C   0  0  0  0  0  0  0  0  0  0  0  0
  -28.9956   14.0688  -21.3190 C   0  0  0  0  0  0  0  0  0  0  0  0
  -29.6730   15.2884  -21.2785 C   0  0  0  0  0  0  0  0  0  0  0  0
  -29.8669   15.9177  -20.0780 C   0  0  0  0  0  0  0  0  0  0  0  0
  -29.4181   15.3959  -18.8948 C   0  0  0  0  0  0  0  0  0  0  0  0
  -28.7507   14.1864  -18.9737 C   0  0  0  0  0  0  0  0  0  0  0  0
  -28.5236   13.5045  -20.1455 C   0  0  0  0  0  0  0  0  0  0  0  0
  -27.6507   11.9595  -20.1716 Cl  0  0  0  0  0  0  0  0  0  0  0  0
  -28.2493   13.7315  -23.7495 C   0  0  0  0  0  0  0  0  0  0  0  0
  -27.6985   15.0134  -24.1392 C   0  0  0  0  0  0  0  0  0  0  0  0
  -28.3608   15.7132  -24.9826 O   0  0  0  0  0  0  0  0  0  0  0  0
  -26.4977   15.5594  -23.6683 N   0  0  0  0  0  0  0  0  0  0  0  0
  -26.0517   16.8741  -24.0775 C   0  0  0  0  0  0  0  0  0  0  0  0
  -25.6760   14.8625  -22.7701 C   0  0  0  0  0  0  0  0  0  0  0  0
  -24.8970   13.7805  -23.0866 C   0  0  0  0  0  0  0  0  0  0  0  0
  -24.1179   13.1908  -22.0992 C   0  0  0  0  0  0  0  0  0  0  0  0
  -24.0890   13.6467  -20.8007 C   0  0  0  0  0  0  0  0  0  0  0  0
  -23.1006   12.8838  -19.5834 Cl  0  0  0  0  0  0  0  0  0  0  0  0
  -24.8718   14.7334  -20.4822 C   0  0  0  0  0  0  0  0  0  0  0  0
  -25.6398   15.3114  -21.4615 C   0  0  0  0  0  0  0  0  0  0  0  0
  1  2  1  0
  2  3  1  0
  3  4  1  0
  4  5  2  0
  5  6  1  0
  6  7  2  0
  7  8  1  0
  8  9  2  0
  9 10  1  0
 10 11  2  0
 11 12  1  0
  5 13  1  0
 13 14  1  0
 14 15  2  0
 14 16  1  0
 16 17  1  0
 16 18  1  0
 18 19  2  0
 19 20  1  0
 20 21  2  0
 21 22  1  0
 21 23  1  0
 23 24  2  0
 13  2  2  0
 24 18  1  0
 11  6  1  0
M  END
$$$$
