
     RDKit          3D

 33 37  0  0  0  0  0  0  0  0999 V2000
  -28.9150    6.7286  -25.4929 C   0  0  0  0  0  0  0  0  0  0  0  0
  -28.2501    5.4169  -25.7349 C   0  0  0  0  0  0  0  0  0  0  0  0
  -28.9744    4.2805  -26.0501 C   0  0  0  0  0  0  0  0  0  0  0  0
  -28.3762    3.0650  -26.2758 C   0  0  0  0  0  0  0  0  0  0  0  0
  -27.0094    2.9775  -26.1847 C   0  0  0  0  0  0  0  0  0  0  0  0
  -26.3586    1.7682  -26.4047 O   0  0  0  0  0  0  0  0  0  0  0  0
  -25.4840    1.6051  -27.4864 C   0  0  0  0  0  0  0  0  0  0  0  0
  -25.8698    1.5038  -28.7671 N   0  0  0  0  0  0  0  0  0  0  0  0
  -24.7642    1.3560  -29.5414 C   0  0  0  0  0  0  0  0  0  0  0  0
  -24.5646    1.2087  -30.9021 C   0  0  0  0  0  0  0  0  0  0  0  0
  -23.2937    1.0727  -31.4444 C   0  0  0  0  0  0  0  0  0  0  0  0
  -23.0753    0.8930  -33.1875 Cl  0  0  0  0  0  0  0  0  0  0  0  0
  -22.2369    1.0911  -30.5618 C   0  0  0  0  0  0  0  0  0  0  0  0
  -20.8819    0.9460  -31.0756 C   0  0  0  0  0  0  0  0  0  0  0  0
  -20.0816    2.0550  -31.2527 C   0  0  0  0  0  0  0  0  0  0  0  0
  -18.7867    1.9594  -31.7350 C   0  0  0  0  0  0  0  0  0  0  0  0
  -18.2539    0.7143  -32.0584 C   0  0  0  0  0  0  0  0  0  0  0  0
  -16.8960    0.5797  -32.5686 C   0  0  0  0  0  0  0  0  0  0  0  0
  -15.8428    1.2821  -32.0344 C   0  0  0  0  0  0  0  0  0  0  0  0
  -14.5473    1.1330  -32.5446 C   0  0  0  0  0  0  0  0  0  0  0  0
  -14.3015    0.2770  -33.5951 C   0  0  0  0  0  0  0  0  0  0  0  0
  -15.3575   -0.4295  -34.1334 C   0  0  0  0  0  0  0  0  0  0  0  0
  -16.6429   -0.2747  -33.6193 C   0  0  0  0  0  0  0  0  0  0  0  0
  -19.0857   -0.3679  -31.8669 C   0  0  0  0  0  0  0  0  0  0  0  0
  -20.3769   -0.2933  -31.3880 C   0  0  0  0  0  0  0  0  0  0  0  0
  -22.4362    1.2386  -29.1994 C   0  0  0  0  0  0  0  0  0  0  0  0
  -23.7045    1.3744  -28.6589 C   0  0  0  0  0  0  0  0  0  0  0  0
  -24.1432    1.5275  -27.3940 N   0  0  0  0  0  0  0  0  0  0  0  0
  -26.2901    4.1066  -25.8715 C   0  0  0  0  0  0  0  0  0  0  0  0
  -26.8794    5.3378  -25.6415 C   0  0  0  0  0  0  0  0  0  0  0  0
  -26.0961    6.5189  -25.3109 C   0  0  0  0  0  0  0  0  0  0  0  0
  -26.4624    7.6955  -25.5053 O   0  0  0  0  0  0  0  0  0  0  0  0
  -24.8485    6.3233  -24.7364 O   0  0  0  0  0  0  0  0  0  0  0  0
  1  2  1  0
  2  3  2  0
  3  4  1  0
  4  5  2  0
  5  6  1  0
  6  7  1  0
  7  8  2  0
  8  9  1  0
  9 10  2  0
 10 11  1  0
 11 12  1  0
 11 13  2  0
 13 14  1  0
 14 15  2  0
 15 16  1  0
 16 17  2  0
 17 18  1  0
 18 19  2  0
 19 20  1  0
 20 21  2  0
 21 22  1  0
 22 23  2  0
 17 24  1  0
 24 25  2  0
 13 26  1  0
 26 27  2  0
 27 28  1  0
  5 29  1  0
 29 30  2  0
 30 31  1  0
 31 32  2  0
 31 33  1  0
 30  2  1  0
 28  7  1  0
 27  9  1  0
 25 14  1  0
 23 18  1  0
M  END
$$$$
