
     RDKit          3D

 37 40  0  0  0  0  0  0  0  0999 V2000
  -11.4286   17.0671  -39.9725 C   0  0  0  0  0  0  0  0  0  0  0  0
  -12.8641   17.1961  -39.9875 N   0  0  0  0  0  0  0  0  0  0  0  0
  -13.5488   17.3768  -41.2626 C   0  0  0  0  0  0  0  0  0  0  0  0
  -14.2456   18.7077  -41.1801 C   0  0  0  0  0  0  0  0  0  0  0  0
  -14.8453   19.0266  -42.3762 O   0  0  0  0  0  0  0  0  0  0  0  0
  -15.9572   19.8093  -42.5314 C   0  0  0  0  0  0  0  0  0  0  0  0
  -15.9741   21.1584  -42.7993 C   0  0  0  0  0  0  0  0  0  0  0  0
  -17.1702   21.8720  -42.9488 C   0  0  0  0  0  0  0  0  0  0  0  0
  -18.3859   21.2501  -42.8314 C   0  0  0  0  0  0  0  0  0  0  0  0
  -19.6251   22.0133  -42.9911 C   0  0  0  0  0  0  0  0  0  0  0  0
  -20.1020   22.7253  -41.7839 C   0  0  2  0  0  0  0  0  0  0  0  0
  -20.6402   21.7666  -40.8367 N   0  0  0  0  0  0  0  0  0  0  0  0
  -20.5879   21.8655  -39.4346 C   0  0  0  0  0  0  0  0  0  0  0  0
  -19.4920   22.4435  -38.8116 C   0  0  0  0  0  0  0  0  0  0  0  0
  -19.4022   22.5904  -37.4236 C   0  0  0  0  0  0  0  0  0  0  0  0
  -20.4386   22.1439  -36.6485 C   0  0  0  0  0  0  0  0  0  0  0  0
  -21.5320   21.5677  -37.2330 C   0  0  0  0  0  0  0  0  0  0  0  0
  -21.6023   21.4308  -38.6264 C   0  0  0  0  0  0  0  0  0  0  0  0
  -22.7414   20.7197  -39.1404 C   0  0  0  0  0  0  0  0  0  0  0  0
  -23.6114   21.1726  -39.9326 O   0  0  0  0  0  0  0  0  0  0  0  0
  -23.0009   19.3143  -38.7538 C   0  0  0  0  0  0  0  0  0  0  0  0
  -24.2522   18.7699  -38.7222 C   0  0  0  0  0  0  0  0  0  0  0  0
  -24.4780   17.4487  -38.3154 C   0  0  0  0  0  0  0  0  0  0  0  0
  -23.4216   16.6512  -37.9309 C   0  0  0  0  0  0  0  0  0  0  0  0
  -22.1554   17.1956  -37.9622 C   0  0  0  0  0  0  0  0  0  0  0  0
  -21.9346   18.5046  -38.3650 C   0  0  0  0  0  0  0  0  0  0  0  0
  -21.0818   23.8095  -41.9872 C   0  0  0  0  0  0  0  0  0  0  0  0
  -20.6587   24.9866  -42.0884 O   0  0  0  0  0  0  0  0  0  0  0  0
  -22.4719   23.6018  -42.0709 O   0  0  0  0  0  0  0  0  0  0  0  0
  -18.3849   19.9004  -42.5617 C   0  0  0  0  0  0  0  0  0  0  0  0
  -17.2251   19.1815  -42.4122 C   0  0  0  0  0  0  0  0  0  0  0  0
  -13.6415   17.1558  -38.8095 C   0  0  0  0  0  0  0  0  0  0  0  0
  -13.2267   16.6575  -37.6013 C   0  0  0  0  0  0  0  0  0  0  0  0
  -14.0506   16.6525  -36.4792 C   0  0  0  0  0  0  0  0  0  0  0  0
  -15.3111   17.1688  -36.6173 C   0  0  0  0  0  0  0  0  0  0  0  0
  -15.7328   17.6730  -37.8374 C   0  0  0  0  0  0  0  0  0  0  0  0
  -14.8982   17.6484  -38.8693 N   0  0  0  0  0  0  0  0  0  0  0  0
  1  2  1  0
  2  3  1  0
  3  4  1  0
  4  5  1  0
  5  6  1  0
  6  7  2  0
  7  8  1  0
  8  9  2  0
  9 10  1  0
 11 10  1  6
 11 12  1  0
 12 13  1  0
 13 14  2  0
 14 15  1  0
 15 16  2  0
 16 17  1  0
 17 18  2  0
 18 19  1  0
 19 20  2  0
 19 21  1  0
 21 22  2  0
 22 23  1  0
 23 24  2  0
 24 25  1  0
 25 26  2  0
 11 27  1  0
 27 28  2  0
 27 29  1  0
  9 30  1  0
 30 31  2  0
  2 32  1  0
 32 33  2  0
 33 34  1  0
 34 35  2  0
 35 36  1  0
 36 37  2  0
 31  6  1  0
 37 32  1  0
 18 13  1  0
 26 21  1  0
M  END
$$$$
