
     RDKit          3D

 18 20  0  0  0  0  0  0  0  0999 V2000
  -18.6558   38.8006  -20.4419 O   0  0  0  0  0  0  0  0  0  0  0  0
  -18.9504   39.9333  -20.8774 C   0  0  0  0  0  0  0  0  0  0  0  0
  -18.5542   41.0986  -20.1075 C   0  0  0  0  0  0  0  0  0  0  0  0
  -19.4375   41.8821  -19.4101 C   0  0  0  0  0  0  0  0  0  0  0  0
  -18.9789   42.9655  -18.7107 C   0  0  0  0  0  0  0  0  0  0  0  0
  -17.6439   43.3252  -18.6650 C   0  0  0  0  0  0  0  0  0  0  0  0
  -16.7727   42.5278  -19.3704 C   0  0  0  0  0  0  0  0  0  0  0  0
  -17.1977   41.4340  -20.0823 C   0  0  0  0  0  0  0  0  0  0  0  0
  -15.4271   42.8530  -19.3515 O   0  0  0  0  0  0  0  0  0  0  0  0
  -14.9610   44.1130  -18.9836 C   0  0  0  0  0  0  0  0  0  0  0  0
  -15.9704   45.0276  -18.3729 C   0  0  0  0  0  0  0  0  0  0  0  0
  -17.1575   44.4072  -17.9705 O   0  0  0  0  0  0  0  0  0  0  0  0
  -19.6496   40.1144  -22.0834 N   0  0  0  0  0  0  0  0  0  0  0  0
  -19.6345   41.3787  -22.7879 C   0  0  0  0  0  0  0  0  0  0  0  0
  -19.0340   41.0952  -24.1456 C   0  0  0  0  0  0  0  0  0  0  0  0
  -18.6430   39.6721  -24.3661 C   0  0  0  0  0  0  0  0  0  0  0  0
  -19.6429   38.6468  -23.9389 C   0  0  0  0  0  0  0  0  0  0  0  0
  -20.4376   39.0597  -22.7246 C   0  0  0  0  0  0  0  0  0  0  0  0
  1  2  2  0
  2  3  1  0
  3  4  2  0
  4  5  1  0
  5  6  2  0
  6  7  1  0
  7  8  2  0
  7  9  1  0
  9 10  1  0
 10 11  1  0
 11 12  1  0
  2 13  1  0
 13 14  1  0
 14 15  1  0
 15 16  1  0
 16 17  1  0
 17 18  1  0
  8  3  1  0
 18 13  1  0
 12  6  1  0
M  END
$$$$
