
     RDKit          3D

 48 56  0  0  0  0  0  0  0  0999 V2000
  -29.3384   12.7423  -22.7493 C   0  0  0  0  0  0  0  0  0  0  0  0
  -29.2242   13.3269  -21.4024 C   0  0  0  0  0  0  0  0  0  0  0  0
  -29.1293   14.6999  -21.1767 C   0  0  0  0  0  0  0  0  0  0  0  0
  -29.1323   15.7418  -22.1932 C   0  0  0  0  0  0  0  0  0  0  0  0
  -27.9926   16.5304  -22.2546 C   0  0  0  0  0  0  0  0  0  0  0  0
  -27.9848   17.5322  -23.1971 C   0  0  0  0  0  0  0  0  0  0  0  0
  -29.0328   17.7859  -24.0646 C   0  0  0  0  0  0  0  0  0  0  0  0
  -28.9379   18.8628  -25.0097 N   0  0  0  0  0  0  0  0  0  0  0  0
  -30.0633   19.7264  -25.1361 C   0  0  0  0  0  0  0  0  0  0  0  0
  -30.0265   20.7681  -26.1706 C   0  0  0  0  0  0  0  0  0  0  0  0
  -28.6650   21.2095  -26.5025 C   0  0  0  0  0  0  0  0  0  0  0  0
  -28.4900   22.5104  -27.0223 C   0  0  0  0  0  0  0  0  0  0  0  0
  -27.2293   22.9257  -27.3715 C   0  0  0  0  0  0  0  0  0  0  0  0
  -26.1419   22.0948  -27.2232 C   0  0  0  0  0  0  0  0  0  0  0  0
  -26.3258   20.8009  -26.7048 C   0  0  0  0  0  0  0  0  0  0  0  0
  -25.1464   19.9933  -26.6115 C   0  0  0  0  0  0  0  0  0  0  0  0
  -24.0416   20.6384  -26.5163 O   0  0  0  0  0  0  0  0  0  0  0  0
  -25.0367   18.6044  -26.6181 N   0  0  0  0  0  0  0  0  0  0  0  0
  -23.8102   17.9009  -27.0006 C   0  0  0  0  0  0  0  0  0  0  0  0
  -23.5903   16.7758  -27.4693 N   0  0  0  0  0  0  0  0  0  0  0  0
  -22.4144   16.3057  -27.7715 C   0  0  0  0  0  0  0  0  0  0  0  0
  -22.1039   15.0388  -28.3047 C   0  0  0  0  0  0  0  0  0  0  0  0
  -20.8109   14.7091  -28.5638 C   0  0  0  0  0  0  0  0  0  0  0  0
  -19.7368   15.5277  -28.3457 C   0  0  0  0  0  0  0  0  0  0  0  0
  -20.0126   16.7979  -27.8152 C   0  0  0  0  0  0  0  0  0  0  0  0
  -21.3498   17.1126  -27.5567 C   0  0  0  0  0  0  0  0  0  0  0  0
  -22.1600   18.5810  -26.8932 S   0  0  0  0  0  0  0  0  0  0  0  0
  -27.5699   20.3719  -26.3512 C   0  0  0  0  0  0  0  0  0  0  0  0
  -27.7169   19.0143  -25.7986 C   0  0  0  0  0  0  0  0  0  0  0  0
  -30.1050   17.0036  -23.9695 N   0  0  0  0  0  0  0  0  0  0  0  0
  -30.1688   15.9976  -23.0588 C   0  0  0  0  0  0  0  0  0  0  0  0
  -31.3498   15.1420  -22.9804 C   0  0  0  0  0  0  0  0  0  0  0  0
  -31.6323   14.5431  -21.9171 O   0  0  0  0  0  0  0  0  0  0  0  0
  -32.1776   14.9754  -24.0749 O   0  0  0  0  0  0  0  0  0  0  0  0
  -29.0569   14.8577  -19.8140 C   0  0  0  0  0  0  0  0  0  0  0  0
  -29.1063   13.6423  -19.2567 N   0  0  0  0  0  0  0  0  0  0  0  0
  -29.2072   12.7210  -20.2121 N   0  0  0  0  0  0  0  0  0  0  0  0
  -29.2661   11.3134  -19.9643 C   0  0  0  0  0  0  0  0  0  0  0  0
  -27.9498   10.6421  -19.7537 C   0  0  0  0  0  0  0  0  0  0  0  0
  -26.9703   11.4467  -18.9667 C   0  0  0  0  0  0  0  0  0  0  0  0
  -25.6478   10.7357  -18.8411 C   0  0  0  0  0  0  0  0  0  0  0  0
  -25.0640   10.5587  -20.2242 C   0  0  0  0  0  0  0  0  0  0  0  0
  -26.0063    9.7348  -21.0619 C   0  0  0  0  0  0  0  0  0  0  0  0
  -26.1889    8.3769  -20.4262 C   0  0  0  0  0  0  0  0  0  0  0  0
  -26.8236    8.5640  -19.0650 C   0  0  0  0  0  0  0  0  0  0  0  0
  -25.8661    9.3706  -18.2023 C   0  0  0  0  0  0  0  0  0  0  0  0
  -28.1478    9.2570  -19.1615 C   0  0  0  0  0  0  0  0  0  0  0  0
  -27.3316   10.4235  -21.1317 C   0  0  0  0  0  0  0  0  0  0  0  0
  1  2  1  0
  2  3  2  0
  3  4  1  0
  4  5  2  0
  5  6  1  0
  6  7  2  0
  7  8  1  0
  8  9  1  0
  9 10  1  0
 10 11  1  0
 11 12  2  0
 12 13  1  0
 13 14  2  0
 14 15  1  0
 15 16  1  0
 16 17  2  0
 16 18  1  0
 18 19  1  0
 19 20  2  0
 20 21  1  0
 21 22  2  0
 22 23  1  0
 23 24  2  0
 24 25  1  0
 25 26  2  0
 26 27  1  0
 15 28  2  0
 28 29  1  0
  7 30  1  0
 30 31  2  0
 31 32  1  0
 32 33  2  0
 32 34  1  0
  3 35  1  0
 35 36  2  0
 36 37  1  0
 37 38  1  0
 38 39  1  0
 39 40  1  0
 40 41  1  0
 41 42  1  0
 42 43  1  0
 43 44  1  0
 44 45  1  0
 45 46  1  0
 45 47  1  0
 43 48  1  0
 37  2  1  0
 47 39  1  0
 31  4  1  0
 48 39  1  0
 29  8  1  0
 46 41  1  0
 28 11  1  0
 27 19  1  0
 26 21  1  0
M  END
$$$$
