
     RDKit          3D

 32 34  0  0  0  0  0  0  0  0999 V2000
  -26.1152   14.6929  -21.2334 O   0  0  0  0  0  0  0  0  0  0  0  0
  -27.2951   14.5078  -21.5932 C   0  0  0  0  0  0  0  0  0  0  0  0
  -27.9348   15.6596  -22.2548 C   0  0  0  0  0  0  0  0  0  0  0  0
  -27.2212   16.8383  -22.4347 C   0  0  0  0  0  0  0  0  0  0  0  0
  -25.9179   16.9296  -21.9937 O   0  0  0  0  0  0  0  0  0  0  0  0
  -27.7885   17.9268  -23.0478 C   0  0  0  0  0  0  0  0  0  0  0  0
  -29.0918   17.8155  -23.4812 C   0  0  0  0  0  0  0  0  0  0  0  0
  -29.8017   16.6241  -23.2950 C   0  0  0  0  0  0  0  0  0  0  0  0
  -31.1137   16.4984  -23.7265 O   0  0  0  0  0  0  0  0  0  0  0  0
  -29.2237   15.5226  -22.6730 C   0  0  0  0  0  0  0  0  0  0  0  0
  -29.9858   14.2801  -22.4879 C   0  0  0  0  0  0  0  0  0  0  0  0
  -31.1693   14.2920  -22.9235 O   0  0  0  0  0  0  0  0  0  0  0  0
  -29.3408   13.1582  -21.8354 C   0  0  0  0  0  0  0  0  0  0  0  0
  -30.0279   12.0053  -21.6668 C   0  0  0  0  0  0  0  0  0  0  0  0
  -31.3664   11.8384  -22.0811 N   0  0  0  0  0  0  0  0  0  0  0  0
  -32.3046   11.2035  -21.1339 C   0  0  0  0  0  0  0  0  0  0  0  0
  -32.9356   12.2204  -20.2078 C   0  0  0  0  0  0  0  0  0  0  0  0
  -33.8868   11.5881  -19.3489 N   0  0  0  0  0  0  0  0  0  0  0  0
  -33.8325   12.0441  -17.9962 C   0  0  0  0  0  0  0  0  0  0  0  0
  -33.3945   10.9244  -17.0596 C   0  0  0  0  0  0  0  0  0  0  0  0
  -33.4011   11.3821  -15.7396 O   0  0  0  0  0  0  0  0  0  0  0  0
  -29.3783   10.9365  -21.0426 C   0  0  0  0  0  0  0  0  0  0  0  0
  -28.0916   11.0393  -20.6117 C   0  0  0  0  0  0  0  0  0  0  0  0
  -27.3665   12.2237  -20.7783 C   0  0  0  0  0  0  0  0  0  0  0  0
  -26.0658   12.2751  -20.2790 N   0  0  0  0  0  0  0  0  0  0  0  0
  -25.0395   11.2765  -20.5715 C   0  0  0  0  0  0  0  0  0  0  0  0
  -24.5726   11.2633  -21.9814 C   0  0  0  0  0  0  0  0  0  0  0  0
  -23.2652   11.9191  -22.0457 N   0  0  0  0  0  0  0  0  0  0  0  0
  -22.1801   10.9962  -22.2200 C   0  0  0  0  0  0  0  0  0  0  0  0
  -20.9722   11.5890  -21.5180 C   0  0  0  0  0  0  0  0  0  0  0  0
  -20.2031   12.3811  -22.3536 O   0  0  0  0  0  0  0  0  0  0  0  0
  -28.0131   13.2633  -21.3911 C   0  0  0  0  0  0  0  0  0  0  0  0
  1  2  2  0
  2  3  1  0
  3  4  2  0
  4  5  1  0
  4  6  1  0
  6  7  2  0
  7  8  1  0
  8  9  1  0
  8 10  2  0
 10 11  1  0
 11 12  2  0
 11 13  1  0
 13 14  2  0
 14 15  1  0
 15 16  1  0
 16 17  1  0
 17 18  1  0
 18 19  1  0
 19 20  1  0
 20 21  1  0
 14 22  1  0
 22 23  2  0
 23 24  1  0
 24 25  1  0
 25 26  1  0
 26 27  1  0
 27 28  1  0
 28 29  1  0
 29 30  1  0
 30 31  1  0
 24 32  2  0
 32  2  1  0
 10  3  1  0
 32 13  1  0
M  END
$$$$
