
     RDKit          3D

 17 19  0  0  0  0  0  0  0  0999 V2000
  -11.0717   42.3117  -18.3022 C   0  0  0  0  0  0  0  0  0  0  0  0
  -11.9751   42.4929  -19.4882 C   0  0  0  0  0  0  0  0  0  0  0  0
  -12.6794   43.8099  -19.4359 C   0  0  0  0  0  0  0  0  0  0  0  0
  -11.9795   44.8782  -19.2792 N   0  0  0  0  0  0  0  0  0  0  0  0
  -12.5121   46.1625  -19.2162 N   0  0  0  0  0  0  0  0  0  0  0  0
  -13.9360   46.2930  -19.3357 C   0  0  0  0  0  0  0  0  0  0  0  0
  -14.4979   47.5539  -19.2762 C   0  0  0  0  0  0  0  0  0  0  0  0
  -15.8793   47.6600  -19.3921 C   0  0  0  0  0  0  0  0  0  0  0  0
  -16.7023   46.5664  -19.5624 C   0  0  0  0  0  0  0  0  0  0  0  0
  -16.1084   45.3122  -19.6184 C   0  0  0  0  0  0  0  0  0  0  0  0
  -16.9198   44.2047  -19.7851 C   0  0  0  0  0  0  0  0  0  0  0  0
  -18.2928   44.3677  -19.8948 O   0  0  0  0  0  0  0  0  0  0  0  0
  -19.1310   43.4055  -20.4907 C   0  0  0  0  0  0  0  0  0  0  0  0
  -16.2839   42.9862  -19.8308 C   0  0  0  0  0  0  0  0  0  0  0  0
  -14.9157   42.8161  -19.7226 C   0  0  0  0  0  0  0  0  0  0  0  0
  -14.1228   43.9390  -19.5570 C   0  0  0  0  0  0  0  0  0  0  0  0
  -14.7403   45.1830  -19.5060 C   0  0  0  0  0  0  0  0  0  0  0  0
  1  2  1  0
  2  3  1  0
  3  4  2  0
  4  5  1  0
  5  6  1  0
  6  7  1  0
  7  8  2  0
  8  9  1  0
  9 10  2  0
 10 11  1  0
 11 12  1  0
 12 13  1  0
 11 14  2  0
 14 15  1  0
 15 16  2  0
 16 17  1  0
 16  3  1  0
 17  6  2  0
 17 10  1  0
M  END
$$$$
