
     RDKit          3D

 22 23  0  0  0  0  0  0  0  0999 V2000
  -10.7572   41.5714  -16.8336 C   0  0  0  0  0  0  0  0  0  0  0  0
  -11.7082   42.3870  -17.6928 C   0  0  0  0  0  0  0  0  0  0  0  0
  -12.8332   42.8372  -16.8038 C   0  0  0  0  0  0  0  0  0  0  0  0
  -13.8552   43.6213  -17.5873 C   0  0  0  0  0  0  0  0  0  0  0  0
  -13.8708   44.8495  -17.4456 O   0  0  0  0  0  0  0  0  0  0  0  0
  -14.7662   42.9872  -18.4532 N   0  0  0  0  0  0  0  0  0  0  0  0
  -15.7663   43.5886  -19.2438 C   0  0  0  0  0  0  0  0  0  0  0  0
  -16.0936   44.9116  -18.9119 C   0  0  0  0  0  0  0  0  0  0  0  0
  -17.0566   45.5584  -19.6334 C   0  0  0  0  0  0  0  0  0  0  0  0
  -17.6967   44.9321  -20.6638 C   0  0  0  0  0  0  0  0  0  0  0  0
  -17.4098   43.6318  -21.0263 C   0  0  0  0  0  0  0  0  0  0  0  0
  -18.0698   42.9488  -22.0826 N   0  0  0  0  0  0  0  0  0  0  0  0
  -18.5054   41.6162  -21.9932 C   0  0  0  0  0  0  0  0  0  0  0  0
  -18.2000   41.0023  -20.9161 O   0  0  0  0  0  0  0  0  0  0  0  0
  -19.2573   40.8793  -22.9846 C   0  0  0  0  0  0  0  0  0  0  0  0
  -20.3112   41.5328  -23.6341 C   0  0  0  0  0  0  0  0  0  0  0  0
  -21.0872   40.9203  -24.5904 C   0  0  0  0  0  0  0  0  0  0  0  0
  -20.8594   39.6114  -24.9598 C   0  0  0  0  0  0  0  0  0  0  0  0
  -19.8251   38.9523  -24.3303 C   0  0  0  0  0  0  0  0  0  0  0  0
  -19.0408   39.5787  -23.3605 C   0  0  0  0  0  0  0  0  0  0  0  0
  -17.6112   38.6416  -22.4962 Br  0  0  0  0  0  0  0  0  0  0  0  0
  -16.4347   42.9917  -20.2894 C   0  0  0  0  0  0  0  0  0  0  0  0
  1  2  1  0
  2  3  1  0
  3  4  1  0
  4  5  2  0
  4  6  1  0
  6  7  1  0
  7  8  2  0
  8  9  1  0
  9 10  2  0
 10 11  1  0
 11 12  1  0
 12 13  1  0
 13 14  2  0
 13 15  1  0
 15 16  2  0
 16 17  1  0
 17 18  2  0
 18 19  1  0
 19 20  2  0
 20 21  1  0
 11 22  2  0
 22  7  1  0
 20 15  1  0
M  END
$$$$
