
     RDKit          3D

  5  4  0  0  0  0  0  0  0  0999 V2000
  -17.3515   36.7990  -22.3163 Cl  0  0  0  0  0  0  0  0  0  0  0  0
  -18.1704   37.7540  -21.0751 C   0  0  0  0  0  0  0  0  0  0  0  0
  -19.4768   37.8019  -21.1376 C   0  0  0  0  0  0  0  0  0  0  0  0
  -20.3419   37.0783  -22.4501 Cl  0  0  0  0  0  0  0  0  0  0  0  0
  -20.3542   38.6123  -19.8699 Cl  0  0  0  0  0  0  0  0  0  0  0  0
  1  2  1  0
  2  3  2  3
  3  4  1  0
  3  5  1  0
M  END
$$$$
