
     RDKit          3D

 13 14  0  0  0  0  0  0  0  0999 V2000
  -18.2569   40.5815  -18.7527 Br  0  0  0  0  0  0  0  0  0  0  0  0
  -17.8066   42.3431  -19.3431 C   0  0  0  0  0  0  0  0  0  0  0  0
  -18.5702   43.0027  -20.2911 C   0  0  0  0  0  0  0  0  0  0  0  0
  -20.1096   42.0948  -21.0060 Br  0  0  0  0  0  0  0  0  0  0  0  0
  -18.2274   44.2742  -20.7034 C   0  0  0  0  0  0  0  0  0  0  0  0
  -19.2688   45.1729  -21.9957 Br  0  0  0  0  0  0  0  0  0  0  0  0
  -17.1233   44.9233  -20.1894 C   0  0  0  0  0  0  0  0  0  0  0  0
  -16.5508   46.1301  -20.3881 N   0  0  0  0  0  0  0  0  0  0  0  0
  -15.4604   46.2711  -19.6132 C   0  0  0  0  0  0  0  0  0  0  0  0
  -15.3514   45.1258  -18.9161 N   0  0  0  0  0  0  0  0  0  0  0  0
  -16.3498   44.2770  -19.2409 C   0  0  0  0  0  0  0  0  0  0  0  0
  -16.7031   43.0083  -18.8384 C   0  0  0  0  0  0  0  0  0  0  0  0
  -15.6050   42.1514  -17.5241 Br  0  0  0  0  0  0  0  0  0  0  0  0
  1  2  1  0
  2  3  2  0
  3  4  1  0
  3  5  1  0
  5  6  1  0
  5  7  2  0
  7  8  1  0
  8  9  1  0
  9 10  2  0
 10 11  1  0
 11 12  2  0
 12 13  1  0
 12  2  1  0
 11  7  1  0
M  END
$$$$
