
     RDKit          3D

 32 36  0  0  0  0  0  0  0  0999 V2000
  -18.4413   47.1773  -22.3874 O   0  0  0  0  0  0  0  0  0  0  0  0
  -18.1860   48.0279  -21.3121 C   0  0  1  0  0  0  0  0  0  0  0  0
  -19.1935   47.6704  -20.2327 C   0  0  0  0  0  0  0  0  0  0  0  0
  -18.7371   46.4540  -19.4561 C   0  0  0  0  0  0  0  0  0  0  0  0
  -17.8033   45.5938  -20.2742 C   0  0  2  0  0  0  0  0  0  0  0  0
  -17.4210   44.4659  -19.4469 N   0  0  0  0  0  0  0  0  0  0  0  0
  -17.7524   43.1252  -19.7382 C   0  0  0  0  0  0  0  0  0  0  0  0
  -17.2838   42.1648  -18.8964 N   0  0  0  0  0  0  0  0  0  0  0  0
  -17.5393   40.8606  -19.0786 C   0  0  0  0  0  0  0  0  0  0  0  0
  -18.3119   40.5295  -20.1765 C   0  0  0  0  0  0  0  0  0  0  0  0
  -18.7108   39.3363  -20.5950 N   0  0  0  0  0  0  0  0  0  0  0  0
  -19.4584   39.5297  -21.7388 C   0  0  0  0  0  0  0  0  0  0  0  0
  -20.0128   38.4221  -22.3963 N   0  0  0  0  0  0  0  0  0  0  0  0
  -19.8298   37.0644  -22.0441 C   0  0  0  0  0  0  0  0  0  0  0  0
  -20.9413   36.3623  -21.6333 C   0  0  0  0  0  0  0  0  0  0  0  0
  -22.1503   36.9541  -21.5614 F   0  0  0  0  0  0  0  0  0  0  0  0
  -20.8003   35.0332  -21.2929 C   0  0  0  0  0  0  0  0  0  0  0  0
  -19.5724   34.4083  -21.3593 C   0  0  0  0  0  0  0  0  0  0  0  0
  -19.4496   33.1024  -21.0215 F   0  0  0  0  0  0  0  0  0  0  0  0
  -18.4755   35.0996  -21.7648 C   0  0  0  0  0  0  0  0  0  0  0  0
  -18.6179   36.4509  -22.1112 C   0  0  0  0  0  0  0  0  0  0  0  0
  -17.4837   37.0903  -22.5253 F   0  0  0  0  0  0  0  0  0  0  0  0
  -19.5168   40.8174  -22.0158 N   0  0  0  0  0  0  0  0  0  0  0  0
  -20.1514   41.5328  -23.0625 C   0  0  1  0  0  0  0  0  0  0  0  0
  -21.2788   42.4464  -22.6055 C   0  0  0  0  0  0  0  0  0  0  0  0
  -21.3302   43.4170  -23.7405 C   0  0  0  0  0  0  0  0  0  0  0  0
  -20.1331   43.4415  -24.3839 O   0  0  0  0  0  0  0  0  0  0  0  0
  -19.3166   42.3941  -23.9391 C   0  0  0  0  0  0  0  0  0  0  0  0
  -18.7960   41.4823  -21.0397 C   0  0  0  0  0  0  0  0  0  0  0  0
  -18.5075   42.7719  -20.8063 N   0  0  0  0  0  0  0  0  0  0  0  0
  -16.5815   46.2728  -20.7683 C   0  0  0  0  0  0  0  0  0  0  0  0
  -16.7760   47.7597  -20.8462 C   0  0  0  0  0  0  0  0  0  0  0  0
  2  1  1  6
  2  3  1  0
  3  4  1  0
  4  5  1  0
  5  6  1  1
  6  7  1  0
  7  8  2  0
  8  9  1  0
  9 10  2  0
 10 11  1  0
 11 12  2  0
 12 13  1  0
 13 14  1  0
 14 15  2  0
 15 16  1  0
 15 17  1  0
 17 18  2  0
 18 19  1  0
 18 20  1  0
 20 21  2  0
 21 22  1  0
 12 23  1  0
 24 23  1  1
 24 25  1  0
 25 26  1  0
 26 27  1  0
 27 28  1  0
 23 29  1  0
 29 30  2  0
  5 31  1  0
 31 32  1  0
 32  2  1  0
 30  7  1  0
 29 10  1  0
 21 14  1  0
 28 24  1  0
M  END
$$$$
