
     RDKit          3D

 21 22  0  0  0  0  0  0  0  0999 V2000
  -19.3408   35.0727  -23.3638 Cl  0  0  0  0  0  0  0  0  0  0  0  0
  -17.8181   35.4228  -22.9057 O   0  0  0  0  0  0  0  0  0  0  0  0
  -18.9380   36.1064  -23.6716 S   0  0  0  0  0  6  0  0  0  0  0  0
  -18.3115   37.0070  -24.6641 O   0  0  0  0  0  0  0  0  0  0  0  0
  -19.7842   37.0926  -22.5037 C   0  0  0  0  0  0  0  0  0  0  0  0
  -21.1241   36.9869  -22.2342 C   0  0  0  0  0  0  0  0  0  0  0  0
  -21.7097   37.8191  -21.3017 C   0  0  0  0  0  0  0  0  0  0  0  0
  -20.9989   38.7611  -20.6237 C   0  0  0  0  0  0  0  0  0  0  0  0
  -19.6548   38.8817  -20.8815 C   0  0  0  0  0  0  0  0  0  0  0  0
  -18.9460   39.8516  -20.1802 C   0  0  0  0  0  0  0  0  0  0  0  0
  -17.6378   39.9685  -20.4343 N   0  0  0  0  0  0  0  0  0  0  0  0
  -16.9996   39.2035  -21.3192 C   0  0  0  0  0  0  0  0  0  0  0  0
  -17.6944   38.2315  -22.0263 C   0  0  0  0  0  0  0  0  0  0  0  0
  -19.0526   38.0653  -21.8036 C   0  0  0  0  0  0  0  0  0  0  0  0
  -19.9818   34.9570  -24.3221 N   0  0  0  0  0  0  0  0  0  0  0  0
  -20.4958   34.0138  -23.2700 C   0  0  0  0  0  0  0  0  0  0  0  0
  -19.8784   32.7845  -23.5657 C   0  0  0  0  0  0  0  0  0  0  0  0
  -19.2429   31.5770  -23.8737 C   0  0  0  0  0  0  0  0  0  0  0  0
  -18.4945   31.8459  -25.1568 N   0  0  0  0  0  0  0  0  0  0  0  0
  -18.3470   33.2836  -25.3836 C   0  0  0  0  0  0  0  0  0  0  0  0
  -19.4292   34.2253  -25.4496 C   0  0  0  0  0  0  0  0  0  0  0  0
  2  3  2  0
  3  4  2  0
  3  5  1  0
  5  6  2  0
  6  7  1  0
  7  8  2  0
  8  9  1  0
  9 10  2  0
 10 11  1  0
 11 12  2  0
 12 13  1  0
 13 14  2  0
  3 15  1  0
 15 16  1  0
 16 17  1  0
 17 18  1  0
 18 19  1  0
 19 20  1  0
 20 21  1  0
 14  5  1  0
 21 15  1  0
 14  9  1  0
M  END
$$$$
