
     RDKit          3D

 29 31  0  0  0  0  0  0  0  0999 V2000
  -16.5353   -8.6491  -26.9764 C   0  0  0  0  0  0  0  0  0  0  0  0
  -16.2478   -7.2266  -26.6293 C   0  0  0  0  0  0  0  0  0  0  0  0
  -16.3097   -6.3077  -27.7814 C   0  0  0  0  0  0  0  0  0  0  0  0
  -15.9894   -5.0337  -27.7125 C   0  0  0  0  0  0  0  0  0  0  0  0
  -15.6354   -4.3666  -26.4472 C   0  0  0  0  0  0  0  0  0  0  0  0
  -16.4967   -3.6019  -25.7105 C   0  0  0  0  0  0  0  0  0  0  0  0
  -16.1449   -3.0059  -24.5146 C   0  0  0  0  0  0  0  0  0  0  0  0
  -14.8799   -3.1773  -24.0293 C   0  0  0  0  0  0  0  0  0  0  0  0
  -14.5294   -2.5803  -22.8317 O   0  0  0  0  0  0  0  0  0  0  0  0
  -13.9836   -3.9511  -24.7613 C   0  0  0  0  0  0  0  0  0  0  0  0
  -14.3578   -4.5364  -25.9530 C   0  0  0  0  0  0  0  0  0  0  0  0
  -15.9078   -4.1691  -28.9106 C   0  0  0  0  0  0  0  0  0  0  0  0
  -16.8343   -3.1688  -29.0939 C   0  0  0  0  0  0  0  0  0  0  0  0
  -16.7215   -2.3636  -30.2290 C   0  0  0  0  0  0  0  0  0  0  0  0
  -15.7468   -2.5102  -31.1678 C   0  0  0  0  0  0  0  0  0  0  0  0
  -15.6450   -1.7077  -32.2895 O   0  0  0  0  0  0  0  0  0  0  0  0
  -14.5407   -0.8481  -32.4675 C   0  0  0  0  0  0  0  0  0  0  0  0
  -15.1644    0.5612  -32.5271 C   0  0  0  0  0  0  0  0  0  0  0  0
  -14.6273    1.1496  -33.7130 N   0  0  0  0  0  0  0  0  0  0  0  0
  -13.4627    1.9495  -33.5389 C   0  0  0  0  0  0  0  0  0  0  0  0
  -14.7146    0.3854  -34.9044 C   0  0  0  0  0  0  0  0  0  0  0  0
  -14.8095   -3.5354  -30.9641 C   0  0  0  0  0  0  0  0  0  0  0  0
  -14.9053   -4.3399  -29.8487 C   0  0  0  0  0  0  0  0  0  0  0  0
  -16.8056   -6.8506  -29.0321 C   0  0  0  0  0  0  0  0  0  0  0  0
  -16.0225   -7.6669  -29.8360 C   0  0  0  0  0  0  0  0  0  0  0  0
  -16.4893   -8.2118  -31.0018 C   0  0  0  0  0  0  0  0  0  0  0  0
  -17.7715   -7.9543  -31.4083 C   0  0  0  0  0  0  0  0  0  0  0  0
  -18.5710   -7.1398  -30.6179 C   0  0  0  0  0  0  0  0  0  0  0  0
  -18.0832   -6.5953  -29.4384 C   0  0  0  0  0  0  0  0  0  0  0  0
  1  2  1  0
  2  3  1  0
  3  4  2  0
  4  5  1  0
  5  6  2  0
  6  7  1  0
  7  8  2  0
  8  9  1  0
  8 10  1  0
 10 11  2  0
  4 12  1  0
 12 13  2  0
 13 14  1  0
 14 15  2  0
 15 16  1  0
 16 17  1  0
 17 18  1  0
 18 19  1  0
 19 20  1  0
 19 21  1  0
 15 22  1  0
 22 23  2  0
  3 24  1  0
 24 25  2  0
 25 26  1  0
 26 27  2  0
 27 28  1  0
 28 29  2  0
 11  5  1  0
 23 12  1  0
 29 24  1  0
M  END
$$$$
