
     RDKit          3D

 19 19  0  0  0  0  0  0  0  0999 V2000
  -18.2952   41.4319  -21.0994 Cl  0  0  0  0  0  0  0  0  0  0  0  0
  -18.2924   41.4366  -21.0969 Cl  0  0  0  0  0  0  0  0  0  0  0  0
  -21.6390   39.3380  -22.6437 N   0  0  0  0  0  0  0  0  0  0  0  0
  -20.2773   39.6840  -22.3368 C   0  0  1  0  0  0  0  0  0  0  0  0
  -20.2832   40.6398  -21.1546 C   0  0  0  0  0  0  0  0  0  0  0  0
  -19.2225   40.2405  -20.1527 C   0  0  0  0  0  0  0  0  0  0  0  0
  -17.9037   40.1136  -20.8780 C   0  0  2  0  0  0  0  0  0  0  0  0
  -17.6932   41.2463  -21.7088 N   0  0  0  0  0  0  0  0  0  0  0  0
  -17.6113   42.5143  -21.0677 C   0  0  2  0  0  0  0  0  0  0  0  0
  -17.3814   43.6684  -22.0501 C   0  0  0  0  0  0  0  0  0  0  0  0
  -16.3434   43.2941  -21.0773 C   0  0  1  0  0  0  0  0  0  0  0  0
  -16.0587   44.2412  -19.9689 C   0  0  0  0  0  0  0  0  0  0  0  0
  -14.7992   44.4407  -19.4422 C   0  0  0  0  0  0  0  0  0  0  0  0
  -14.5766   45.3366  -18.4052 C   0  0  0  0  0  0  0  0  0  0  0  0
  -15.6062   46.0684  -17.8541 C   0  0  0  0  0  0  0  0  0  0  0  0
  -16.8669   45.8732  -18.3763 C   0  0  0  0  0  0  0  0  0  0  0  0
  -17.0853   44.9763  -19.4134 C   0  0  0  0  0  0  0  0  0  0  0  0
  -18.0071   38.8933  -21.8021 C   0  0  0  0  0  0  0  0  0  0  0  0
  -19.4466   38.4824  -21.9857 C   0  0  0  0  0  0  0  0  0  0  0  0
  4  3  1  1
  4  5  1  0
  5  6  1  0
  6  7  1  0
  7  8  1  6
  9  8  1  6
  9 10  1  0
 10 11  1  0
 11 12  1  1
 12 13  2  0
 13 14  1  0
 14 15  2  0
 15 16  1  0
 16 17  2  0
  7 18  1  0
 18 19  1  0
 19  4  1  0
 11  9  1  0
 17 12  1  0
M  END
$$$$
