
     RDKit          3D

 35 39  0  0  0  0  0  0  0  0999 V2000
  -24.2737   17.0934  -20.0521 C   0  0  0  0  0  0  0  0  0  0  0  0
  -23.7163   15.7669  -20.0756 N   0  0  0  0  0  0  0  0  0  0  0  0
  -24.4230   14.6797  -20.6669 C   0  0  0  0  0  0  0  0  0  0  0  0
  -23.8854   13.4435  -20.7485 N   0  0  0  0  0  0  0  0  0  0  0  0
  -24.5484   12.4040  -21.3081 C   0  0  0  0  0  0  0  0  0  0  0  0
  -25.8156   12.6010  -21.8152 C   0  0  0  0  0  0  0  0  0  0  0  0
  -26.5712   11.6125  -22.4023 C   0  0  0  0  0  0  0  0  0  0  0  0
  -27.8336   11.8904  -22.8864 C   0  0  0  0  0  0  0  0  0  0  0  0
  -28.6696   10.8583  -23.5201 C   0  0  0  0  0  0  0  0  0  0  0  0
  -29.2705    9.9195  -22.7109 C   0  0  0  0  0  0  0  0  0  0  0  0
  -30.0801    8.9028  -23.2144 C   0  0  0  0  0  0  0  0  0  0  0  0
  -30.2750    8.8507  -24.5738 C   0  0  0  0  0  0  0  0  0  0  0  0
  -31.1079    7.8189  -25.1825 C   0  0  0  0  0  0  0  0  0  0  0  0
  -32.2178    7.3112  -24.5816 C   0  0  0  0  0  0  0  0  0  0  0  0
  -32.9929    6.3218  -25.1955 C   0  0  0  0  0  0  0  0  0  0  0  0
  -32.5933    5.8833  -26.4231 C   0  0  0  0  0  0  0  0  0  0  0  0
  -31.4724    6.3893  -27.0408 C   0  0  0  0  0  0  0  0  0  0  0  0
  -31.0874    5.8729  -28.3767 C   0  0  0  0  0  0  0  0  0  0  0  0
  -30.7789    7.3336  -26.3955 N   0  0  0  0  0  0  0  0  0  0  0  0
  -29.6595    9.8097  -25.3864 C   0  0  0  0  0  0  0  0  0  0  0  0
  -28.8671   10.8001  -24.8632 C   0  0  0  0  0  0  0  0  0  0  0  0
  -28.1338   11.9569  -25.9231 Cl  0  0  0  0  0  0  0  0  0  0  0  0
  -28.2962   13.1949  -22.7542 C   0  0  0  0  0  0  0  0  0  0  0  0
  -29.4554   13.4123  -23.2084 O   0  0  0  0  0  0  0  0  0  0  0  0
  -27.5768   14.1812  -22.1835 N   0  0  0  0  0  0  0  0  0  0  0  0
  -28.1128   15.5228  -22.0739 C   0  0  0  0  0  0  0  0  0  0  0  0
  -27.5693   16.4448  -23.1414 C   0  0  1  0  0  0  0  0  0  0  0  0
  -28.1087   16.2017  -24.3796 O   0  0  0  0  0  0  0  0  0  0  0  0
  -29.4718   16.4328  -24.4545 C   0  0  0  0  0  0  0  0  0  0  0  0
  -29.8003   17.7441  -23.8211 C   0  0  2  0  0  0  0  0  0  0  0  0
  -30.6123   18.5835  -24.7092 N   0  0  0  0  0  0  0  0  0  0  0  0
  -28.5066   18.4947  -23.6086 C   0  0  0  0  0  0  0  0  0  0  0  0
  -27.6570   17.7749  -22.7352 O   0  0  0  0  0  0  0  0  0  0  0  0
  -26.3515   13.8635  -21.7260 C   0  0  0  0  0  0  0  0  0  0  0  0
  -25.6429   14.8727  -21.1541 N   0  0  0  0  0  0  0  0  0  0  0  0
  1  2  1  0
  2  3  1  0
  3  4  2  0
  4  5  1  0
  5  6  2  0
  6  7  1  0
  7  8  2  0
  8  9  1  0
  9 10  2  0
 10 11  1  0
 11 12  2  0
 12 13  1  0
 13 14  2  0
 14 15  1  0
 15 16  2  0
 16 17  1  0
 17 18  1  0
 17 19  2  0
 12 20  1  0
 20 21  2  0
 21 22  1  0
  8 23  1  0
 23 24  2  0
 23 25  1  0
 25 26  1  0
 27 26  1  1
 27 28  1  0
 28 29  1  0
 29 30  1  0
 30 31  1  6
 30 32  1  0
 32 33  1  0
 25 34  1  0
 34 35  2  0
 35  3  1  0
 34  6  1  0
 21  9  1  0
 33 27  1  0
 19 13  1  0
M  END
$$$$
