
     RDKit          3D

 42 47  0  0  0  0  0  0  0  0999 V2000
  -20.9254   40.0499  -27.8985 C   0  0  0  0  0  0  0  0  0  0  0  0
  -20.7940   40.5114  -26.4911 C   0  0  0  0  0  0  0  0  0  0  0  0
  -20.5915   41.8425  -26.2103 C   0  0  0  0  0  0  0  0  0  0  0  0
  -20.4624   42.3229  -24.9064 C   0  0  0  0  0  0  0  0  0  0  0  0
  -20.5388   41.4404  -23.8504 C   0  0  0  0  0  0  0  0  0  0  0  0
  -20.4124   41.9176  -22.5330 C   0  0  0  0  0  0  0  0  0  0  0  0
  -20.1840   43.2892  -22.2805 N   0  0  0  0  0  0  0  0  0  0  0  0
  -19.3606   43.8715  -20.9102 S   0  0  0  0  0  6  0  0  0  0  0  0
  -19.4628   45.3873  -20.8519 O   0  0  0  0  0  0  0  0  0  0  0  0
  -20.0131   43.3927  -19.6229 O   0  0  0  0  0  0  0  0  0  0  0  0
  -17.6803   43.4282  -20.8405 C   0  0  0  0  0  0  0  0  0  0  0  0
  -16.7064   44.1621  -21.5283 C   0  0  0  0  0  0  0  0  0  0  0  0
  -15.3889   43.7753  -21.4690 C   0  0  0  0  0  0  0  0  0  0  0  0
  -14.9888   42.6806  -20.7498 C   0  0  0  0  0  0  0  0  0  0  0  0
  -15.9480   41.9525  -20.0688 C   0  0  0  0  0  0  0  0  0  0  0  0
  -17.2665   42.3137  -20.1095 C   0  0  0  0  0  0  0  0  0  0  0  0
  -18.4827   41.3891  -19.2434 Cl  0  0  0  0  0  0  0  0  0  0  0  0
  -20.4914   41.0411  -21.4823 C   0  0  0  0  0  0  0  0  0  0  0  0
  -20.6981   39.6841  -21.7669 C   0  0  0  0  0  0  0  0  0  0  0  0
  -20.8246   39.1901  -23.0374 C   0  0  0  0  0  0  0  0  0  0  0  0
  -20.7424   40.0896  -24.0929 C   0  0  0  0  0  0  0  0  0  0  0  0
  -20.8653   39.6565  -25.4101 C   0  0  0  0  0  0  0  0  0  0  0  0
  -21.0655   38.3214  -25.6276 O   0  0  0  0  0  0  0  0  0  0  0  0
  -21.0608   37.3312  -24.6817 C   0  0  0  0  0  0  0  0  0  0  0  0
  -20.0356   37.2509  -23.7714 N   0  0  0  0  0  0  0  0  0  0  0  0
  -19.9647   36.3159  -22.8244 C   0  0  0  0  0  0  0  0  0  0  0  0
  -20.9524   35.3538  -22.7131 C   0  0  0  0  0  0  0  0  0  0  0  0
  -21.9758   35.3965  -23.5864 C   0  0  0  0  0  0  0  0  0  0  0  0
  -22.0462   36.3970  -24.5949 C   0  0  0  0  0  0  0  0  0  0  0  0
  -23.1914   36.3605  -25.4902 C   0  0  0  0  0  0  0  0  0  0  0  0
  -23.8382   37.4392  -25.9916 C   0  0  0  0  0  0  0  0  0  0  0  0
  -24.9435   37.3246  -26.8455 C   0  0  0  0  0  0  0  0  0  0  0  0
  -25.3484   36.0932  -27.1561 N   0  0  0  0  0  0  0  0  0  0  0  0
  -24.7444   34.9910  -26.6876 C   0  0  0  0  0  0  0  0  0  0  0  0
  -25.2241   33.6793  -27.0524 N   0  0  0  0  0  0  0  0  0  0  0  0
  -24.5718   32.4997  -26.5615 C   0  0  1  0  0  0  0  0  0  0  0  0
  -25.4035   31.2487  -26.6386 C   0  0  0  0  0  0  0  0  0  0  0  0
  -24.4804   30.0528  -26.9099 C   0  0  0  0  0  0  0  0  0  0  0  0
  -24.0712   30.1468  -28.3595 C   0  0  0  0  0  0  0  0  0  0  0  0
  -23.7111   31.5146  -28.6353 N   0  0  0  0  0  0  0  0  0  0  0  0
  -23.3414   32.2459  -27.4377 C   0  0  0  0  0  0  0  0  0  0  0  0
  -23.7037   35.1509  -25.8839 N   0  0  0  0  0  0  0  0  0  0  0  0
  1  2  1  0
  2  3  2  0
  3  4  1  0
  4  5  2  0
  5  6  1  0
  6  7  1  0
  7  8  1  0
  8  9  2  0
  8 10  2  0
  8 11  1  0
 11 12  2  0
 12 13  1  0
 13 14  2  0
 14 15  1  0
 15 16  2  0
 16 17  1  0
  6 18  2  0
 18 19  1  0
 19 20  2  0
 20 21  1  0
 21 22  2  0
 22 23  1  0
 23 24  1  0
 24 25  2  0
 25 26  1  0
 26 27  2  0
 27 28  1  0
 28 29  2  0
 29 30  1  0
 30 31  2  0
 31 32  1  0
 32 33  2  0
 33 34  1  0
 34 35  1  0
 36 35  1  6
 36 37  1  0
 37 38  1  0
 38 39  1  0
 39 40  1  0
 40 41  1  0
 34 42  2  0
 22  2  1  0
 29 24  1  0
 42 30  1  0
 21  5  1  0
 41 36  1  0
 16 11  1  0
M  END
$$$$
