
     RDKit          3D

 21 21  0  0  0  0  0  0  0  0999 V2000
  -15.8494   42.6783  -19.5295 C   0  0  0  0  0  0  0  0  0  0  0  0
  -17.0321   42.0672  -19.1193 O   0  0  0  0  0  0  0  0  0  0  0  0
  -17.7874   41.1750  -19.8556 C   0  0  0  0  0  0  0  0  0  0  0  0
  -18.9370   40.6607  -19.2966 C   0  0  0  0  0  0  0  0  0  0  0  0
  -19.7294   39.7658  -19.9863 C   0  0  0  0  0  0  0  0  0  0  0  0
  -19.3590   39.3779  -21.2674 C   0  0  0  0  0  0  0  0  0  0  0  0
  -20.2169   38.4125  -22.0133 C   0  0  0  0  0  0  0  0  0  0  0  0
  -20.5994   39.1088  -23.2927 C   0  0  0  0  0  0  0  0  0  0  0  0
  -21.4458   38.3630  -24.1693 N   0  0  0  0  0  0  0  0  0  0  0  0
  -21.6545   39.1424  -25.3885 C   0  0  0  0  0  0  0  0  0  0  0  0
  -22.7840   38.1924  -23.5888 C   0  0  0  0  0  0  0  0  0  0  0  0
  -19.4768   37.1159  -22.2548 C   0  0  0  0  0  0  0  0  0  0  0  0
  -18.3170   37.2798  -23.0115 O   0  0  0  0  0  0  0  0  0  0  0  0
  -20.3309   36.0951  -22.9582 C   0  0  0  0  0  0  0  0  0  0  0  0
  -19.6046   34.7531  -22.7431 C   0  0  0  0  0  0  0  0  0  0  0  0
  -20.0793   34.2460  -21.3893 C   0  0  0  0  0  0  0  0  0  0  0  0
  -20.0213   35.4351  -20.4557 C   0  0  0  0  0  0  0  0  0  0  0  0
  -19.0785   36.4943  -20.9254 C   0  0  0  0  0  0  0  0  0  0  0  0
  -18.2328   39.8701  -21.8380 C   0  0  0  0  0  0  0  0  0  0  0  0
  -17.4494   40.7694  -21.1276 C   0  0  0  0  0  0  0  0  0  0  0  0
  -19.4260   38.9457  -21.7437 Cl  0  0  0  0  0  0  0  0  0  0  0  0
  1  2  1  0
  2  3  1  0
  3  4  2  0
  4  5  1  0
  5  6  2  0
  6  7  1  0
  7  8  1  0
  8  9  1  0
  9 10  1  0
  9 11  1  0
  7 12  1  0
 12 13  1  0
 12 14  1  0
 14 15  1  0
 15 16  1  0
 16 17  1  0
 17 18  1  0
  6 19  1  0
 19 20  2  0
 20  3  1  0
 18 12  1  0
M  END
$$$$
