
     RDKit          3D

 28 29  0  0  0  0  0  0  0  0999 V2000
  -12.1300   44.2911  -15.1081 C   0  0  0  0  0  0  0  0  0  0  0  0
  -12.8756   44.6371  -16.3017 N   0  0  0  0  0  0  0  0  0  0  0  0
  -13.8275   43.6371  -16.6648 C   0  0  0  0  0  0  0  0  0  0  0  0
  -14.4884   44.1034  -17.9678 C   0  0  0  0  0  0  0  0  0  0  0  0
  -15.3874   45.2544  -17.5907 C   0  0  0  0  0  0  0  0  0  0  0  0
  -15.6691   46.0176  -18.8491 C   0  0  0  0  0  0  0  0  0  0  0  0
  -15.3222   47.2153  -18.8916 O   0  0  0  0  0  0  0  0  0  0  0  0
  -16.3284   45.3448  -19.9622 C   0  0  0  0  0  0  0  0  0  0  0  0
  -16.5662   46.0948  -21.0996 C   0  0  0  0  0  0  0  0  0  0  0  0
  -17.1767   45.5234  -22.1679 C   0  0  0  0  0  0  0  0  0  0  0  0
  -17.5549   44.1701  -22.0893 C   0  0  0  0  0  0  0  0  0  0  0  0
  -17.3159   43.4496  -20.9708 C   0  0  0  0  0  0  0  0  0  0  0  0
  -17.6614   42.0965  -20.8104 N   0  0  0  0  0  0  0  0  0  0  0  0
  -18.2965   41.3099  -21.7632 C   0  0  0  0  0  0  0  0  0  0  0  0
  -18.6356   41.7862  -22.9066 O   0  0  0  0  0  0  0  0  0  0  0  0
  -18.6336   39.8987  -21.5588 C   0  0  0  0  0  0  0  0  0  0  0  0
  -19.4877   39.2736  -22.4850 C   0  0  0  0  0  0  0  0  0  0  0  0
  -19.9796   40.0098  -23.5121 F   0  0  0  0  0  0  0  0  0  0  0  0
  -19.8470   37.9649  -22.3990 C   0  0  0  0  0  0  0  0  0  0  0  0
  -19.3560   37.2054  -21.3577 C   0  0  0  0  0  0  0  0  0  0  0  0
  -19.6743   35.8895  -21.2096 F   0  0  0  0  0  0  0  0  0  0  0  0
  -18.5234   37.7986  -20.4479 C   0  0  0  0  0  0  0  0  0  0  0  0
  -18.1590   39.1302  -20.5377 C   0  0  0  0  0  0  0  0  0  0  0  0
  -17.3092   39.6278  -19.5965 F   0  0  0  0  0  0  0  0  0  0  0  0
  -16.6971   44.0659  -19.9154 N   0  0  0  0  0  0  0  0  0  0  0  0
  -14.8302   46.1220  -16.5164 C   0  0  0  0  0  0  0  0  0  0  0  0
  -13.3496   45.9758  -16.3092 C   0  0  0  0  0  0  0  0  0  0  0  0
  -16.4138   42.6507  -19.7265 Cl  0  0  0  0  0  0  0  0  0  0  0  0
  1  2  1  0
  2  3  1  0
  3  4  1  0
  4  5  1  0
  5  6  1  0
  6  7  2  0
  6  8  1  0
  8  9  2  0
  9 10  1  0
 10 11  2  0
 11 12  1  0
 12 13  1  0
 13 14  1  0
 14 15  2  0
 14 16  1  0
 16 17  2  0
 17 18  1  0
 17 19  1  0
 19 20  2  0
 20 21  1  0
 20 22  1  0
 22 23  2  0
 23 24  1  0
 12 25  2  0
  5 26  1  0
 26 27  1  0
 27  2  1  0
 25  8  1  0
 23 16  1  0
M  END
$$$$
