
     RDKit          3D

 29 32  0  0  0  0  0  0  0  0999 V2000
  -10.7241   46.7251  -17.0211 C   0  0  0  0  0  0  0  0  0  0  0  0
  -10.9586   45.2512  -17.1552 C   0  0  0  0  0  0  0  0  0  0  0  0
  -12.0035   44.9192  -18.1698 C   0  0  0  0  0  0  0  0  0  0  0  0
  -13.1470   45.6761  -18.2813 C   0  0  0  0  0  0  0  0  0  0  0  0
  -14.1438   45.3980  -19.2118 C   0  0  0  0  0  0  0  0  0  0  0  0
  -13.9672   44.3334  -20.0370 C   0  0  0  0  0  0  0  0  0  0  0  0
  -12.8303   43.5759  -19.9304 C   0  0  0  0  0  0  0  0  0  0  0  0
  -11.8290   43.8398  -19.0093 C   0  0  0  0  0  0  0  0  0  0  0  0
  -10.6098   42.9955  -18.9223 C   0  0  0  0  0  0  0  0  0  0  0  0
  -10.8872   41.5814  -18.5312 C   0  0  0  0  0  0  0  0  0  0  0  0
  -15.1244   44.2132  -20.9377 C   0  0  0  0  0  0  0  0  0  0  0  0
  -15.9563   45.4806  -20.7340 C   0  0  0  0  0  0  0  0  0  0  0  0
  -17.3090   45.0635  -20.6329 N   0  0  0  0  0  0  0  0  0  0  0  0
  -17.6925   43.8645  -21.2856 C   0  0  0  0  0  0  0  0  0  0  0  0
  -18.2071   42.7558  -20.4269 C   0  0  2  0  0  0  0  0  0  0  0  0
  -17.3622   42.4746  -19.3424 O   0  0  0  0  0  0  0  0  0  0  0  0
  -18.6385   41.5475  -21.1550 C   0  0  0  0  0  0  0  0  0  0  0  0
  -18.4606   41.4165  -22.5326 C   0  0  0  0  0  0  0  0  0  0  0  0
  -18.8587   40.3040  -23.2362 C   0  0  0  0  0  0  0  0  0  0  0  0
  -19.4616   39.2580  -22.5836 C   0  0  0  0  0  0  0  0  0  0  0  0
  -19.8722   38.1170  -23.2903 O   0  0  0  0  0  0  0  0  0  0  0  0
  -19.6510   39.3605  -21.2223 C   0  0  0  0  0  0  0  0  0  0  0  0
  -20.2396   38.3402  -20.6021 N   0  0  0  0  0  0  0  0  0  0  0  0
  -20.4768   38.3279  -19.2933 C   0  0  0  0  0  0  0  0  0  0  0  0
  -21.0437   37.3328  -18.7281 O   0  0  0  0  0  0  0  0  0  0  0  0
  -20.1019   39.4098  -18.5417 C   0  0  0  0  0  0  0  0  0  0  0  0
  -19.4820   40.4956  -19.1649 C   0  0  0  0  0  0  0  0  0  0  0  0
  -19.2463   40.4843  -20.5254 C   0  0  0  0  0  0  0  0  0  0  0  0
  -15.4164   46.0929  -19.4638 C   0  0  0  0  0  0  0  0  0  0  0  0
  1  2  1  0
  2  3  1  0
  3  4  2  0
  4  5  1  0
  5  6  2  0
  6  7  1  0
  7  8  2  0
  8  9  1  0
  9 10  1  0
  6 11  1  0
 11 12  1  0
 12 13  1  0
 13 14  1  0
 14 15  1  0
 15 16  1  1
 15 17  1  0
 17 18  2  0
 18 19  1  0
 19 20  2  0
 20 21  1  0
 20 22  1  0
 22 23  1  0
 23 24  1  0
 24 25  2  0
 24 26  1  0
 26 27  2  0
 27 28  1  0
 12 29  1  0
  8  3  1  0
 28 17  1  0
 29  5  1  0
 28 22  2  0
M  END
$$$$
