
     RDKit          3D

 21 22  0  0  0  0  0  0  0  0999 V2000
  -15.0581   -4.9637  -35.1269 C   0  0  0  0  0  0  0  0  0  0  0  0
  -14.9325   -3.6454  -35.6945 N   0  0  0  0  0  0  0  0  0  0  0  0
  -13.5935   -3.0843  -35.5212 C   0  0  0  0  0  0  0  0  0  0  0  0
  -13.2749   -2.7753  -34.1036 C   0  0  0  0  0  0  0  0  0  0  0  0
  -14.1389   -1.8115  -33.4009 C   0  0  0  0  0  0  0  0  0  0  0  0
  -14.1990   -0.4088  -33.9153 C   0  0  0  0  0  0  0  0  0  0  0  0
  -15.1548    0.3015  -33.0189 C   0  0  0  0  0  0  0  0  0  0  0  0
  -16.3863    0.3918  -33.6168 C   0  0  0  0  0  0  0  0  0  0  0  0
  -17.4646    1.0044  -32.9637 C   0  0  0  0  0  0  0  0  0  0  0  0
  -17.2785    1.5225  -31.7010 C   0  0  0  0  0  0  0  0  0  0  0  0
  -16.0223    1.4351  -31.0819 C   0  0  0  0  0  0  0  0  0  0  0  0
  -14.9941    0.8244  -31.7633 C   0  0  0  0  0  0  0  0  0  0  0  0
  -13.7772    0.8274  -30.9888 C   0  0  0  0  0  0  0  0  0  0  0  0
  -12.5484    0.7928  -31.4709 C   0  0  0  0  0  0  0  0  0  0  0  0
  -12.1263    0.7453  -32.8598 C   0  0  0  0  0  0  0  0  0  0  0  0
  -10.8986    1.2899  -33.0632 C   0  0  0  0  0  0  0  0  0  0  0  0
  -10.4005    1.3362  -34.3435 C   0  0  0  0  0  0  0  0  0  0  0  0
  -11.0890    0.8558  -35.4322 C   0  0  0  0  0  0  0  0  0  0  0  0
  -12.3484    0.3010  -35.1939 C   0  0  0  0  0  0  0  0  0  0  0  0
  -12.8701    0.2409  -33.9214 C   0  0  0  0  0  0  0  0  0  0  0  0
  -14.1384   -1.2989  -33.9758 Cl  0  0  0  0  0  0  0  0  0  0  0  0
  1  2  1  0
  2  3  1  0
  3  4  1  0
  4  5  1  0
  5  6  1  0
  6  7  1  0
  7  8  2  0
  8  9  1  0
  9 10  2  0
 10 11  1  0
 11 12  2  0
 12 13  1  0
 13 14  2  0
 14 15  1  0
 15 16  2  0
 16 17  1  0
 17 18  2  0
 18 19  1  0
 19 20  2  0
 20  6  1  0
 12  7  1  0
 20 15  1  0
M  END
$$$$
