
     RDKit          3D

 13 13  0  0  0  0  0  0  0  0999 V2000
  -20.4284   35.2390  -25.2620 C   0  0  0  0  0  0  0  0  0  0  0  0
  -20.9785   35.8455  -24.1241 O   0  0  0  0  0  0  0  0  0  0  0  0
  -20.1846   36.4409  -23.1742 C   0  0  0  0  0  0  0  0  0  0  0  0
  -19.2481   37.3959  -23.5037 C   0  0  0  0  0  0  0  0  0  0  0  0
  -18.4638   37.9825  -22.5562 C   0  0  0  0  0  0  0  0  0  0  0  0
  -17.4473   39.0048  -22.8316 C   0  0  0  0  0  0  0  0  0  0  0  0
  -17.9423   40.3529  -23.0079 C   0  0  0  0  0  0  0  0  0  0  0  0
  -18.4109   40.7604  -24.0901 O   0  0  0  0  0  0  0  0  0  0  0  0
  -17.9119   41.2508  -21.9636 O   0  0  0  0  0  0  0  0  0  0  0  0
  -18.6377   37.5870  -21.2430 C   0  0  0  0  0  0  0  0  0  0  0  0
  -19.5636   36.6353  -20.8746 C   0  0  0  0  0  0  0  0  0  0  0  0
  -20.3434   36.0587  -21.8548 C   0  0  0  0  0  0  0  0  0  0  0  0
  -21.2803   35.0944  -21.4745 O   0  0  0  0  0  0  0  0  0  0  0  0
  1  2  1  0
  2  3  1  0
  3  4  2  0
  4  5  1  0
  5  6  1  0
  6  7  1  0
  7  8  2  0
  7  9  1  0
  5 10  2  0
 10 11  1  0
 11 12  2  0
 12 13  1  0
 12  3  1  0
M  END
$$$$
