
     RDKit          3D

 21 23  0  0  0  0  0  0  0  0999 V2000
  -18.9517   39.6481  -17.8791 O   0  0  0  0  0  0  0  0  0  0  0  0
  -18.8097   40.3228  -18.9478 C   0  0  0  0  0  0  0  0  0  0  0  0
  -18.2270   41.5601  -18.9257 N   0  0  0  0  0  0  0  0  0  0  0  0
  -18.0677   42.2841  -20.0307 C   0  0  0  0  0  0  0  0  0  0  0  0
  -17.4475   43.5916  -19.9798 C   0  0  0  0  0  0  0  0  0  0  0  0
  -16.7019   44.0146  -18.9142 C   0  0  0  0  0  0  0  0  0  0  0  0
  -16.1049   45.2780  -18.8697 C   0  0  0  0  0  0  0  0  0  0  0  0
  -16.2613   46.1405  -19.9245 C   0  0  0  0  0  0  0  0  0  0  0  0
  -15.6407   47.5092  -19.9265 C   0  0  0  0  0  0  0  0  0  0  0  0
  -16.5235   48.4049  -19.3207 F   0  0  0  0  0  0  0  0  0  0  0  0
  -15.4232   47.9407  -21.2213 F   0  0  0  0  0  0  0  0  0  0  0  0
  -14.4357   47.5134  -19.2522 F   0  0  0  0  0  0  0  0  0  0  0  0
  -17.0106   45.7358  -21.0132 C   0  0  0  0  0  0  0  0  0  0  0  0
  -17.5938   44.4913  -21.0480 C   0  0  0  0  0  0  0  0  0  0  0  0
  -18.5110   41.7379  -21.1847 N   0  0  0  0  0  0  0  0  0  0  0  0
  -19.0898   40.5335  -21.2772 C   0  0  0  0  0  0  0  0  0  0  0  0
  -19.2540   39.7846  -20.1312 C   0  0  0  0  0  0  0  0  0  0  0  0
  -19.8930   38.4328  -20.1705 C   0  0  0  0  0  0  0  0  0  0  0  0
  -21.4426   38.6442  -21.1295 S   0  0  0  0  0  0  0  0  0  0  0  0
  -21.0180   39.6585  -22.5701 C   0  0  0  0  0  0  0  0  0  0  0  0
  -19.5475   40.0105  -22.5874 C   0  0  0  0  0  0  0  0  0  0  0  0
  1  2  2  0
  2  3  1  0
  3  4  1  0
  4  5  1  0
  5  6  2  0
  6  7  1  0
  7  8  2  0
  8  9  1  0
  9 10  1  0
  9 11  1  0
  9 12  1  0
  8 13  1  0
 13 14  2  0
  4 15  2  0
 15 16  1  0
 16 17  2  0
 17 18  1  0
 18 19  1  0
 19 20  1  0
 20 21  1  0
 17  2  1  0
 14  5  1  0
 21 16  1  0
M  END
$$$$
