
     RDKit          3D

 30 33  0  0  0  0  0  0  0  0999 V2000
  -18.1579   22.9905  -41.9964 O   0  0  0  0  0  0  0  0  0  0  0  0
  -19.0373   22.2505  -41.5214 C   0  0  0  0  0  0  0  0  0  0  0  0
  -20.4579   22.7305  -41.5225 C   0  0  0  0  0  0  0  0  0  0  0  0
  -21.0898   22.5157  -40.1637 C   0  0  0  0  0  0  0  0  0  0  0  0
  -20.7753   21.1627  -39.6293 C   0  0  0  0  0  0  0  0  0  0  0  0
  -21.6476   20.6252  -38.6885 C   0  0  0  0  0  0  0  0  0  0  0  0
  -21.4110   19.3905  -38.1620 C   0  0  0  0  0  0  0  0  0  0  0  0
  -20.3126   18.6036  -38.5173 C   0  0  0  0  0  0  0  0  0  0  0  0
  -20.1258   17.3769  -37.9622 O   0  0  0  0  0  0  0  0  0  0  0  0
  -19.0844   16.8273  -37.2440 C   0  0  0  0  0  0  0  0  0  0  0  0
  -18.6375   17.5538  -36.0259 C   0  0  0  0  0  0  0  0  0  0  0  0
  -17.2805   17.1481  -35.5323 C   0  0  0  0  0  0  0  0  0  0  0  0
  -16.8440   17.8751  -34.3068 C   0  0  0  0  0  0  0  0  0  0  0  0
  -16.4234   17.0571  -33.2375 N   0  0  0  0  0  0  0  0  0  0  0  0
  -16.8827   15.7178  -33.2195 C   0  0  0  0  0  0  0  0  0  0  0  0
  -16.7221   15.0264  -31.8882 C   0  0  0  0  0  0  0  0  0  0  0  0
  -15.4645   15.3337  -31.2809 N   0  0  0  0  0  0  0  0  0  0  0  0
  -14.7476   14.3652  -30.5104 C   0  0  0  0  0  0  0  0  0  0  0  0
  -13.4063   14.1334  -30.6982 C   0  0  0  0  0  0  0  0  0  0  0  0
  -12.7132   13.2045  -29.9539 C   0  0  0  0  0  0  0  0  0  0  0  0
  -13.4110   12.4939  -28.9921 C   0  0  0  0  0  0  0  0  0  0  0  0
  -14.7392   12.7229  -28.8058 C   0  0  0  0  0  0  0  0  0  0  0  0
  -15.6131   11.8086  -27.5761 Cl  0  0  0  0  0  0  0  0  0  0  0  0
  -15.4148   13.6499  -29.5537 C   0  0  0  0  0  0  0  0  0  0  0  0
  -17.1397   13.8841  -29.2541 Cl  0  0  0  0  0  0  0  0  0  0  0  0
  -14.8355   16.6443  -31.4089 C   0  0  0  0  0  0  0  0  0  0  0  0
  -15.1225   17.2977  -32.7191 C   0  0  0  0  0  0  0  0  0  0  0  0
  -19.4711   19.1670  -39.4511 C   0  0  0  0  0  0  0  0  0  0  0  0
  -19.6837   20.4264  -40.0089 C   0  0  0  0  0  0  0  0  0  0  0  0
  -18.7903   20.9651  -40.9698 N   0  0  0  0  0  0  0  0  0  0  0  0
  1  2  2  0
  2  3  1  0
  3  4  1  0
  4  5  1  0
  5  6  2  0
  6  7  1  0
  7  8  2  0
  8  9  1  0
  9 10  1  0
 10 11  1  0
 11 12  1  0
 12 13  1  0
 13 14  1  0
 14 15  1  0
 15 16  1  0
 16 17  1  0
 17 18  1  0
 18 19  2  0
 19 20  1  0
 20 21  2  0
 21 22  1  0
 22 23  1  0
 22 24  2  0
 24 25  1  0
 17 26  1  0
 26 27  1  0
  8 28  1  0
 28 29  2  0
 29 30  1  0
 30  2  1  0
 29  5  1  0
 27 14  1  0
 24 18  1  0
M  END
$$$$
