
     RDKit          3D

 34 36  0  0  0  0  0  0  0  0999 V2000
  -12.5053   43.2039  -18.5135 C   0  0  0  0  0  0  0  0  0  0  0  0
  -13.7059   44.1088  -18.6330 C   0  0  0  0  0  0  0  0  0  0  0  0
  -14.8911   43.2596  -18.9145 C   0  0  0  0  0  0  0  0  0  0  0  0
  -15.2623   42.9097  -20.1817 N   0  0  0  0  0  0  0  0  0  0  0  0
  -16.3623   42.1887  -20.1116 N   0  0  0  0  0  0  0  0  0  0  0  0
  -17.0972   41.6097  -21.2258 C   0  0  0  0  0  0  0  0  0  0  0  0
  -18.1541   42.5383  -21.7588 C   0  0  0  0  0  0  0  0  0  0  0  0
  -17.4471   43.8114  -22.2286 C   0  0  0  0  0  0  0  0  0  0  0  0
  -18.4225   44.6903  -22.7327 N   0  0  0  0  0  0  0  0  0  0  0  0
  -18.0113   45.9397  -23.2179 C   0  0  0  0  0  0  0  0  0  0  0  0
  -18.9329   46.6257  -24.1737 C   0  0  0  0  0  0  0  0  0  0  0  0
  -20.1046   45.7627  -24.3603 N   0  0  0  0  0  0  0  0  0  0  0  0
  -20.5779   45.3452  -25.6183 C   0  0  0  0  0  0  0  0  0  0  0  0
  -21.5182   44.3402  -25.7141 C   0  0  0  0  0  0  0  0  0  0  0  0
  -22.0103   43.9150  -26.9330 C   0  0  0  0  0  0  0  0  0  0  0  0
  -21.5789   44.4803  -28.1005 C   0  0  0  0  0  0  0  0  0  0  0  0
  -20.6400   45.4865  -28.0361 C   0  0  0  0  0  0  0  0  0  0  0  0
  -20.0613   46.2368  -29.5119 Cl  0  0  0  0  0  0  0  0  0  0  0  0
  -20.1556   45.9027  -26.8078 C   0  0  0  0  0  0  0  0  0  0  0  0
  -20.7378   45.3888  -23.0991 C   0  0  0  0  0  0  0  0  0  0  0  0
  -19.7596   44.5219  -22.3444 C   0  0  0  0  0  0  0  0  0  0  0  0
  -16.6746   42.0895  -18.8169 C   0  0  0  0  0  0  0  0  0  0  0  0
  -17.6912   41.4532  -18.3889 O   0  0  0  0  0  0  0  0  0  0  0  0
  -15.7596   42.7591  -18.0348 N   0  0  0  0  0  0  0  0  0  0  0  0
  -15.8740   42.8598  -16.6069 C   0  0  0  0  0  0  0  0  0  0  0  0
  -15.2991   41.7631  -15.8010 C   0  0  0  0  0  0  0  0  0  0  0  0
  -13.9724   41.4885  -15.8135 O   0  0  0  0  0  0  0  0  0  0  0  0
  -12.8702   42.2004  -15.4052 C   0  0  0  0  0  0  0  0  0  0  0  0
  -12.9283   43.4482  -14.8322 C   0  0  0  0  0  0  0  0  0  0  0  0
  -11.7556   44.1078  -14.4462 C   0  0  0  0  0  0  0  0  0  0  0  0
  -10.5099   43.5611  -14.6126 C   0  0  0  0  0  0  0  0  0  0  0  0
  -10.4485   42.3116  -15.1856 C   0  0  0  0  0  0  0  0  0  0  0  0
  -11.5885   41.6661  -15.5630 C   0  0  0  0  0  0  0  0  0  0  0  0
  -16.2970   43.5609  -20.0558 Cl  0  0  0  0  0  0  0  0  0  0  0  0
  1  2  1  0
  2  3  1  0
  3  4  2  0
  4  5  1  0
  5  6  1  0
  6  7  1  0
  7  8  1  0
  8  9  1  0
  9 10  1  0
 10 11  1  0
 11 12  1  0
 12 13  1  0
 13 14  2  0
 14 15  1  0
 15 16  2  0
 16 17  1  0
 17 18  1  0
 17 19  2  0
 12 20  1  0
 20 21  1  0
  5 22  1  0
 22 23  2  0
 22 24  1  0
 24 25  1  0
 25 26  1  0
 26 27  1  0
 27 28  1  0
 28 29  2  0
 29 30  1  0
 30 31  2  0
 31 32  1  0
 32 33  2  0
 24  3  1  0
 33 28  1  0
 21  9  1  0
 19 13  1  0
M  END
$$$$
