
     RDKit          3D

 18 20  0  0  0  0  0  0  0  0999 V2000
  -17.4091   38.1879  -21.2766 C   0  0  0  0  0  0  0  0  0  0  0  0
  -17.8063   39.5831  -21.5166 N   0  0  0  0  0  0  0  0  0  0  0  0
  -17.1978   40.4747  -22.4855 C   0  0  0  0  0  0  0  0  0  0  0  0
  -16.1571   40.2184  -23.1004 O   0  0  0  0  0  0  0  0  0  0  0  0
  -18.0383   41.6540  -22.5602 C   0  0  0  0  0  0  0  0  0  0  0  0
  -17.3204   42.9434  -22.5851 C   0  0  0  0  0  0  0  0  0  0  0  0
  -17.0207   43.6156  -21.3267 C   0  0  0  0  0  0  0  0  0  0  0  0
  -17.9640   43.9709  -20.3531 C   0  0  0  0  0  0  0  0  0  0  0  0
  -17.3330   44.6162  -19.3564 N   0  0  0  0  0  0  0  0  0  0  0  0
  -16.0161   44.7029  -19.6279 C   0  0  0  0  0  0  0  0  0  0  0  0
  -14.9591   45.2382  -18.9253 C   0  0  0  0  0  0  0  0  0  0  0  0
  -13.6572   45.1748  -19.4121 C   0  0  0  0  0  0  0  0  0  0  0  0
  -13.4355   44.5697  -20.6098 C   0  0  0  0  0  0  0  0  0  0  0  0
  -14.4886   44.0364  -21.3129 C   0  0  0  0  0  0  0  0  0  0  0  0
  -15.8140   44.0768  -20.8629 C   0  0  0  0  0  0  0  0  0  0  0  0
  -18.9133   41.5847  -21.3619 N   0  0  0  0  0  0  0  0  0  0  0  0
  -18.8430   40.2681  -20.8440 C   0  0  0  0  0  0  0  0  0  0  0  0
  -19.8067   39.6206  -19.6586 S   0  0  0  0  0  0  0  0  0  0  0  0
  1  2  1  0
  2  3  1  0
  3  4  2  0
  3  5  1  0
  5  6  1  0
  6  7  1  0
  7  8  2  0
  8  9  1  0
  9 10  1  0
 10 11  2  0
 11 12  1  0
 12 13  2  0
 13 14  1  0
 14 15  2  0
  5 16  1  0
 16 17  1  0
 17 18  2  0
 17  2  1  0
 15  7  1  0
 15 10  1  0
M  END
$$$$
