
     RDKit          3D

  9  8  0  0  0  0  0  0  0  0999 V2000
  -21.0589   33.9808  -21.7069 O   0  0  0  0  0  0  0  0  0  0  0  0
  -19.6893   34.2751  -22.2326 P   0  0  0  0  0  5  0  0  0  0  0  0
  -19.7546   34.9478  -23.7694 O   0  0  0  0  0  0  0  0  0  0  0  0
  -18.8602   32.7873  -22.3784 O   0  0  0  0  0  0  0  0  0  0  0  0
  -18.7326   35.2911  -21.0850 C   0  0  0  0  0  0  0  0  0  0  0  0
  -18.3426   36.9138  -21.7546 P   0  0  0  0  0  5  0  0  0  0  0  0
  -17.4502   36.7593  -22.9833 O   0  0  0  0  0  0  0  0  0  0  0  0
  -19.6964   37.8249  -22.1191 O   0  0  0  0  0  0  0  0  0  0  0  0
  -17.4236   37.7375  -20.5681 O   0  0  0  0  0  0  0  0  0  0  0  0
  1  2  2  0
  2  3  1  0
  2  4  1  0
  2  5  1  0
  5  6  1  0
  6  7  2  0
  6  8  1  0
  6  9  1  0
M  END
$$$$
