
     RDKit          3D

 27 30  0  0  0  0  0  0  0  0999 V2000
  -20.8369   41.0959  -20.3958 O   0  0  0  0  0  0  0  0  0  0  0  0
  -19.9985   40.0500  -20.7313 C   0  0  0  0  0  0  0  0  0  0  0  0
  -20.2622   38.8170  -20.1772 C   0  0  0  0  0  0  0  0  0  0  0  0
  -19.4665   37.7331  -20.4648 C   0  0  0  0  0  0  0  0  0  0  0  0
  -18.4022   37.9173  -21.3201 C   0  0  0  0  0  0  0  0  0  0  0  0
  -18.1533   39.1585  -21.8659 C   0  0  0  0  0  0  0  0  0  0  0  0
  -18.9498   40.2776  -21.5886 C   0  0  0  0  0  0  0  0  0  0  0  0
  -18.7393   41.6003  -22.1614 C   0  0  0  0  0  0  0  0  0  0  0  0
  -17.8414   42.5105  -21.4480 C   0  0  0  0  0  0  0  0  0  0  0  0
  -18.3025   43.1373  -20.2838 C   0  0  0  0  0  0  0  0  0  0  0  0
  -17.5693   43.9925  -19.5415 C   0  0  0  0  0  0  0  0  0  0  0  0
  -16.2808   44.2894  -19.9259 C   0  0  0  0  0  0  0  0  0  0  0  0
  -15.4318   45.2354  -19.1284 C   0  0  0  0  0  0  0  0  0  0  0  0
  -16.2234   45.8473  -18.1900 F   0  0  0  0  0  0  0  0  0  0  0  0
  -14.4180   44.5646  -18.4768 F   0  0  0  0  0  0  0  0  0  0  0  0
  -14.8631   46.1269  -20.0073 F   0  0  0  0  0  0  0  0  0  0  0  0
  -15.8095   43.6821  -21.0689 C   0  0  0  0  0  0  0  0  0  0  0  0
  -16.5590   42.8092  -21.8258 C   0  0  0  0  0  0  0  0  0  0  0  0
  -19.8440   42.2549  -22.7697 N   0  0  0  0  0  0  0  0  0  0  0  0
  -20.1728   43.4781  -21.9921 C   0  0  0  0  0  0  0  0  0  0  0  0
  -21.5361   43.9572  -22.4207 C   0  0  0  0  0  0  0  0  0  0  0  0
  -21.7437   43.7689  -23.7842 O   0  0  0  0  0  0  0  0  0  0  0  0
  -20.5598   43.8365  -24.5071 C   0  0  0  0  0  0  0  0  0  0  0  0
  -19.5849   42.7121  -24.1460 C   0  0  0  0  0  0  0  0  0  0  0  0
  -17.7655   36.6675  -21.4394 O   0  0  0  0  0  0  0  0  0  0  0  0
  -18.6126   35.6571  -20.9390 C   0  0  0  0  0  0  0  0  0  0  0  0
  -19.4791   36.4048  -20.0725 O   0  0  0  0  0  0  0  0  0  0  0  0
  1  2  1  0
  2  3  2  0
  3  4  1  0
  4  5  2  0
  5  6  1  0
  6  7  2  0
  7  8  1  0
  8  9  1  0
  9 10  2  0
 10 11  1  0
 11 12  2  0
 12 13  1  0
 13 14  1  0
 13 15  1  0
 13 16  1  0
 12 17  1  0
 17 18  2  0
  8 19  1  0
 19 20  1  0
 20 21  1  0
 21 22  1  0
 22 23  1  0
 23 24  1  0
  5 25  1  0
 25 26  1  0
 26 27  1  0
  7  2  1  0
 18  9  1  0
 24 19  1  0
 27  4  1  0
M  END
$$$$
