
     RDKit          3D

 50 55  0  0  0  0  0  0  0  0999 V2000
  -35.5102    9.2592  -17.0539 O   0  0  0  0  0  0  0  0  0  0  0  0
  -34.3381    9.0142  -16.7043 C   0  0  0  0  0  0  0  0  0  0  0  0
  -33.4024   10.1102  -16.7061 N   0  0  0  0  0  0  0  0  0  0  0  0
  -33.5086   11.1865  -17.6699 C   0  0  0  0  0  0  0  0  0  0  0  0
  -32.7062   10.7615  -18.8865 C   0  0  0  0  0  0  0  0  0  0  0  0
  -32.5282   11.9323  -19.7833 C   0  0  0  0  0  0  0  0  0  0  0  0
  -31.6418   12.8938  -19.1850 N   0  0  0  0  0  0  0  0  0  0  0  0
  -30.2548   12.6503  -19.5714 C   0  0  0  0  0  0  0  0  0  0  0  0
  -29.5549   14.0386  -19.4472 C   0  0  0  0  0  0  0  0  0  0  0  0
  -29.2730   14.4341  -20.8587 C   0  0  0  0  0  0  0  0  0  0  0  0
  -28.3214   15.4804  -21.1780 C   0  0  0  0  0  0  0  0  0  0  0  0
  -27.6960   15.5231  -22.5146 C   0  0  0  0  0  0  0  0  0  0  0  0
  -27.7825   16.8167  -23.2431 C   0  0  0  0  0  0  0  0  0  0  0  0
  -28.5887   16.9666  -24.1785 O   0  0  0  0  0  0  0  0  0  0  0  0
  -26.9540   17.9212  -22.9005 N   0  0  0  0  0  0  0  0  0  0  0  0
  -27.2284   18.7767  -21.7640 C   0  0  0  0  0  0  0  0  0  0  0  0
  -28.6256   19.3317  -21.9352 C   0  0  0  0  0  0  0  0  0  0  0  0
  -29.1617   19.6728  -20.6982 F   0  0  0  0  0  0  0  0  0  0  0  0
  -28.5480   20.5157  -22.6755 F   0  0  0  0  0  0  0  0  0  0  0  0
  -29.4672   18.4372  -22.5378 F   0  0  0  0  0  0  0  0  0  0  0  0
  -28.2811   14.4385  -23.3805 C   0  0  0  0  0  0  0  0  0  0  0  0
  -29.6215   14.2651  -23.7990 C   0  0  0  0  0  0  0  0  0  0  0  0
  -29.9732   13.1816  -24.5703 C   0  0  0  0  0  0  0  0  0  0  0  0
  -28.9782   12.2690  -24.9233 C   0  0  0  0  0  0  0  0  0  0  0  0
  -27.6827   12.4612  -24.5039 C   0  0  0  0  0  0  0  0  0  0  0  0
  -27.3324   13.5554  -23.7268 C   0  0  0  0  0  0  0  0  0  0  0  0
  -26.0723   14.0225  -23.1762 C   0  0  0  0  0  0  0  0  0  0  0  0
  -24.7799   13.4644  -23.2926 C   0  0  0  0  0  0  0  0  0  0  0  0
  -23.6978   14.0931  -22.7228 C   0  0  0  0  0  0  0  0  0  0  0  0
  -23.9210   15.2694  -22.0457 C   0  0  0  0  0  0  0  0  0  0  0  0
  -25.1607   15.8443  -21.9095 C   0  0  0  0  0  0  0  0  0  0  0  0
  -26.2468   15.1854  -22.4966 C   0  0  0  0  0  0  0  0  0  0  0  0
  -31.7705   12.9980  -17.7606 C   0  0  0  0  0  0  0  0  0  0  0  0
  -33.0351   12.5157  -17.1464 C   0  0  0  0  0  0  0  0  0  0  0  0
  -33.8450    7.6977  -16.2938 C   0  0  0  0  0  0  0  0  0  0  0  0
  -33.0654    6.9544  -17.1985 C   0  0  0  0  0  0  0  0  0  0  0  0
  -32.5984    5.7022  -16.9216 C   0  0  0  0  0  0  0  0  0  0  0  0
  -32.9263    5.1779  -15.6918 C   0  0  0  0  0  0  0  0  0  0  0  0
  -33.6805    5.8583  -14.7754 C   0  0  0  0  0  0  0  0  0  0  0  0
  -34.1459    7.1438  -15.0870 C   0  0  0  0  0  0  0  0  0  0  0  0
  -34.9121    7.8720  -14.0580 C   0  0  0  0  0  0  0  0  0  0  0  0
  -36.2600    8.0787  -14.2656 C   0  0  0  0  0  0  0  0  0  0  0  0
  -37.0634    8.7225  -13.3316 C   0  0  0  0  0  0  0  0  0  0  0  0
  -36.5203    9.1809  -12.1473 C   0  0  0  0  0  0  0  0  0  0  0  0
  -37.3256    9.8792  -11.1040 C   0  0  0  0  0  0  0  0  0  0  0  0
  -38.4302    9.1329  -10.7686 F   0  0  0  0  0  0  0  0  0  0  0  0
  -36.5226   10.1365  -10.0064 F   0  0  0  0  0  0  0  0  0  0  0  0
  -37.7176   11.1243  -11.5927 F   0  0  0  0  0  0  0  0  0  0  0  0
  -35.1739    8.9746  -11.9380 C   0  0  0  0  0  0  0  0  0  0  0  0
  -34.3679    8.3252  -12.8812 C   0  0  0  0  0  0  0  0  0  0  0  0
  1  2  2  0
  2  3  1  0
  3  4  1  0
  4  5  1  0
  5  6  1  0
  6  7  1  0
  7  8  1  0
  8  9  1  0
  9 10  1  0
 10 11  1  0
 11 12  1  0
 12 13  1  0
 13 14  2  0
 13 15  1  0
 15 16  1  0
 16 17  1  0
 17 18  1  0
 17 19  1  0
 17 20  1  0
 12 21  1  0
 21 22  2  0
 22 23  1  0
 23 24  2  0
 24 25  1  0
 25 26  2  0
 26 27  1  0
 27 28  2  0
 28 29  1  0
 29 30  2  0
 30 31  1  0
 31 32  2  0
  7 33  1  0
 33 34  1  0
  2 35  1  0
 35 36  2  0
 36 37  1  0
 37 38  2  0
 38 39  1  0
 39 40  2  0
 40 41  1  0
 41 42  2  0
 42 43  1  0
 43 44  2  0
 44 45  1  0
 45 46  1  0
 45 47  1  0
 45 48  1  0
 44 49  1  0
 49 50  2  0
 34  4  1  0
 40 35  1  0
 50 41  1  0
 32 12  1  0
 26 21  1  0
 32 27  1  0
M  END
$$$$
