
     RDKit          3D

 25 27  0  0  0  0  0  0  0  0999 V2000
  -19.6280   39.6267  -21.0309 Cl  0  0  0  0  0  0  0  0  0  0  0  0
  -18.9631   32.7420  -21.8983 F   0  0  0  0  0  0  0  0  0  0  0  0
  -19.6077   33.9411  -21.9717 C   0  0  0  0  0  0  0  0  0  0  0  0
  -20.2517   34.4001  -20.8514 C   0  0  0  0  0  0  0  0  0  0  0  0
  -20.9171   35.6074  -20.8780 C   0  0  0  0  0  0  0  0  0  0  0  0
  -20.9344   36.3539  -22.0338 C   0  0  0  0  0  0  0  0  0  0  0  0
  -21.6546   37.6556  -22.0543 C   0  0  2  0  0  0  0  0  0  0  0  0
  -22.8186   37.4950  -22.9943 C   0  0  0  0  0  0  0  0  0  0  0  0
  -23.3840   38.8120  -23.4676 C   0  0  0  0  0  0  0  0  0  0  0  0
  -22.3012   39.4993  -24.1493 N   0  0  0  0  0  0  0  0  0  0  0  0
  -21.4092   39.9388  -23.0935 C   0  0  0  0  0  0  0  0  0  0  0  0
  -20.7665   38.8084  -22.3505 C   0  0  1  0  0  0  0  0  0  0  0  0
  -20.1783   39.3735  -21.0728 C   0  0  0  0  0  0  0  0  0  0  0  0
  -19.3359   40.4682  -21.3627 O   0  0  0  0  0  0  0  0  0  0  0  0
  -18.6767   41.1632  -20.3890 C   0  0  0  0  0  0  0  0  0  0  0  0
  -18.8006   40.8306  -19.0715 C   0  0  0  0  0  0  0  0  0  0  0  0
  -18.1072   41.5730  -18.1319 C   0  0  0  0  0  0  0  0  0  0  0  0
  -17.2992   42.6336  -18.4892 C   0  0  0  0  0  0  0  0  0  0  0  0
  -17.1853   42.9579  -19.8370 C   0  0  0  0  0  0  0  0  0  0  0  0
  -17.8736   42.2216  -20.7749 C   0  0  0  0  0  0  0  0  0  0  0  0
  -16.3313   44.0451  -19.9636 O   0  0  0  0  0  0  0  0  0  0  0  0
  -15.7892   44.3541  -18.6967 C   0  0  0  0  0  0  0  0  0  0  0  0
  -16.5022   43.5400  -17.8028 O   0  0  0  0  0  0  0  0  0  0  0  0
  -20.2810   35.8843  -23.1642 C   0  0  0  0  0  0  0  0  0  0  0  0
  -19.6217   34.6799  -23.1248 C   0  0  0  0  0  0  0  0  0  0  0  0
  2  3  1  0
  3  4  2  0
  4  5  1  0
  5  6  2  0
  7  6  1  6
  7  8  1  0
  8  9  1  0
  9 10  1  0
 10 11  1  0
 11 12  1  0
 12 13  1  1
 13 14  1  0
 14 15  1  0
 15 16  2  0
 16 17  1  0
 17 18  2  0
 18 19  1  0
 19 20  2  0
 19 21  1  0
 21 22  1  0
 22 23  1  0
  6 24  1  0
 24 25  2  0
 25  3  1  0
 12  7  1  0
 20 15  1  0
 23 18  1  0
M  END
$$$$
