
     RDKit          3D

 32 37  0  0  0  0  0  0  0  0999 V2000
  -19.6546   42.0072  -24.8457 C   0  0  0  0  0  0  0  0  0  0  0  0
  -20.8192   41.3865  -24.1083 C   0  0  0  0  0  0  0  0  0  0  0  0
  -20.6971   39.9591  -23.9235 N   0  0  0  0  0  0  0  0  0  0  0  0
  -21.2799   39.0087  -24.6782 C   0  0  0  0  0  0  0  0  0  0  0  0
  -22.1872   39.2546  -25.8027 C   0  0  0  0  0  0  0  0  0  0  0  0
  -21.8845   40.2910  -26.5258 O   0  0  0  0  0  0  0  0  0  0  0  0
  -23.3172   38.5325  -26.1859 N   0  0  0  0  0  0  0  0  0  0  0  0
  -23.9331   38.8931  -27.4807 C   0  0  0  0  0  0  0  0  0  0  0  0
  -25.1621   39.7732  -27.4869 C   0  0  0  0  0  0  0  0  0  0  0  0
  -25.1847   38.3432  -27.9698 C   0  0  0  0  0  0  0  0  0  0  0  0
  -23.9746   37.4519  -25.5007 C   0  0  0  0  0  0  0  0  0  0  0  0
  -23.2056   36.2340  -25.0864 C   0  0  0  0  0  0  0  0  0  0  0  0
  -23.9581   37.1362  -24.0826 C   0  0  0  0  0  0  0  0  0  0  0  0
  -20.9162   37.8003  -24.1712 C   0  0  0  0  0  0  0  0  0  0  0  0
  -20.1026   38.0100  -23.0949 C   0  0  0  0  0  0  0  0  0  0  0  0
  -19.4953   37.0776  -22.2635 C   0  0  0  0  0  0  0  0  0  0  0  0
  -18.7202   37.5943  -21.2353 C   0  0  0  0  0  0  0  0  0  0  0  0
  -18.2352   36.5382  -20.5696 N   0  0  0  0  0  0  0  0  0  0  0  0
  -18.6905   35.4202  -21.1611 C   0  0  0  0  0  0  0  0  0  0  0  0
  -19.4765   35.7447  -22.2187 N   0  0  0  0  0  0  0  0  0  0  0  0
  -20.1624   34.8743  -23.1303 C   0  0  0  0  0  0  0  0  0  0  0  0
  -18.5927   38.9650  -21.0905 C   0  0  0  0  0  0  0  0  0  0  0  0
  -17.7687   39.3776  -19.9969 N   0  0  0  0  0  0  0  0  0  0  0  0
  -17.6196   40.7566  -19.6910 C   0  0  0  0  0  0  0  0  0  0  0  0
  -18.0823   41.8168  -20.4527 C   0  0  0  0  0  0  0  0  0  0  0  0
  -17.7365   43.0138  -19.8365 C   0  0  0  0  0  0  0  0  0  0  0  0
  -18.0595   44.3871  -20.3563 C   0  0  0  0  0  0  0  0  0  0  0  0
  -17.0758   42.6637  -18.7214 N   0  0  0  0  0  0  0  0  0  0  0  0
  -16.5260   43.6336  -17.7729 C   0  0  0  0  0  0  0  0  0  0  0  0
  -17.0071   41.3357  -18.6351 N   0  0  0  0  0  0  0  0  0  0  0  0
  -19.2035   39.8229  -21.9260 N   0  0  0  0  0  0  0  0  0  0  0  0
  -19.9663   39.3706  -22.9402 C   0  0  0  0  0  0  0  0  0  0  0  0
  1  2  1  0
  2  3  1  0
  3  4  1  0
  4  5  1  0
  5  6  2  0
  5  7  1  0
  7  8  1  0
  8  9  1  0
  9 10  1  0
  7 11  1  0
 11 12  1  0
 12 13  1  0
  4 14  2  0
 14 15  1  0
 15 16  2  0
 16 17  1  0
 17 18  1  0
 18 19  2  0
 19 20  1  0
 20 21  1  0
 17 22  2  0
 22 23  1  0
 23 24  1  0
 24 25  1  0
 25 26  2  0
 26 27  1  0
 26 28  1  0
 28 29  1  0
 28 30  1  0
 22 31  1  0
 31 32  2  0
 32  3  1  0
 10  8  1  0
 13 11  1  0
 32 15  1  0
 20 16  1  0
 30 24  2  0
M  END
$$$$
