
     RDKit          3D

 28 32  0  0  0  0  0  0  0  0999 V2000
  -18.8458   35.1970  -21.4253 C   0  0  0  0  0  0  0  0  0  0  0  0
  -18.4431   36.5932  -21.3448 N   0  0  0  0  0  0  0  0  0  0  0  0
  -19.2502   37.5591  -20.8985 C   0  0  0  0  0  0  0  0  0  0  0  0
  -18.5937   38.7682  -20.9390 C   0  0  0  0  0  0  0  0  0  0  0  0
  -19.1511   40.0584  -20.5299 C   0  0  0  0  0  0  0  0  0  0  0  0
  -20.3535   40.1527  -19.8598 C   0  0  0  0  0  0  0  0  0  0  0  0
  -20.8824   41.3590  -19.4726 C   0  0  0  0  0  0  0  0  0  0  0  0
  -20.1720   42.5004  -19.7737 C   0  0  0  0  0  0  0  0  0  0  0  0
  -20.3580   43.8177  -19.5662 N   0  0  0  0  0  0  0  0  0  0  0  0
  -19.3329   44.4717  -20.0791 N   0  0  0  0  0  0  0  0  0  0  0  0
  -18.4570   43.6154  -20.6298 C   0  0  0  0  0  0  0  0  0  0  0  0
  -17.1559   43.9034  -21.3222 C   0  0  0  0  0  0  0  0  0  0  0  0
  -16.8447   42.8278  -22.1604 F   0  0  0  0  0  0  0  0  0  0  0  0
  -17.2929   45.0339  -22.0685 F   0  0  0  0  0  0  0  0  0  0  0  0
  -16.1213   43.9889  -20.2715 C   0  0  0  0  0  0  0  0  0  0  0  0
  -15.2706   42.9318  -20.0885 C   0  0  0  0  0  0  0  0  0  0  0  0
  -14.2836   42.9522  -19.1218 C   0  0  0  0  0  0  0  0  0  0  0  0
  -14.1720   44.0822  -18.3298 C   0  0  0  0  0  0  0  0  0  0  0  0
  -13.2091   44.1183  -17.3764 N   0  0  0  0  0  0  0  0  0  0  0  0
  -13.0753   45.1986  -16.5925 C   0  0  0  0  0  0  0  0  0  0  0  0
  -13.8836   46.3122  -16.6999 C   0  0  0  0  0  0  0  0  0  0  0  0
  -14.8642   46.2786  -17.6689 C   0  0  0  0  0  0  0  0  0  0  0  0
  -15.0100   45.1612  -18.4869 C   0  0  0  0  0  0  0  0  0  0  0  0
  -15.9772   45.0902  -19.4653 C   0  0  0  0  0  0  0  0  0  0  0  0
  -19.0022   42.3854  -20.4274 N   0  0  0  0  0  0  0  0  0  0  0  0
  -18.4996   41.2032  -20.7981 N   0  0  0  0  0  0  0  0  0  0  0  0
  -17.3424   38.5024  -21.4319 C   0  0  0  0  0  0  0  0  0  0  0  0
  -17.3130   37.1736  -21.6573 N   0  0  0  0  0  0  0  0  0  0  0  0
  1  2  1  0
  2  3  1  0
  3  4  2  0
  4  5  1  0
  5  6  1  0
  6  7  2  0
  7  8  1  0
  8  9  2  0
  9 10  1  0
 10 11  2  0
 11 12  1  0
 12 13  1  0
 12 14  1  0
 12 15  1  0
 15 16  2  0
 16 17  1  0
 17 18  2  0
 18 19  1  0
 19 20  2  0
 20 21  1  0
 21 22  2  0
 22 23  1  0
 23 24  2  0
 11 25  1  0
 25 26  1  0
  4 27  1  0
 27 28  2  0
 28  2  1  0
 26  5  2  0
 25  8  1  0
 24 15  1  0
 23 18  1  0
M  END
$$$$
