
     RDKit          3D

 35 40  0  0  0  0  0  0  0  0999 V2000
  -21.4077   36.8705  -27.5671 C   0  0  0  0  0  0  0  0  0  0  0  0
  -22.0174   37.8070  -26.1861 S   0  0  0  0  0  6  0  0  0  0  0  0
  -23.2449   37.1111  -25.6607 O   0  0  0  0  0  0  0  0  0  0  0  0
  -22.3260   39.2157  -26.6073 O   0  0  0  0  0  0  0  0  0  0  0  0
  -20.8287   37.7560  -24.9467 N   0  0  0  0  0  0  0  0  0  0  0  0
  -20.3969   39.0491  -24.5182 C   0  0  0  0  0  0  0  0  0  0  0  0
  -19.1488   38.8616  -23.6830 C   0  0  0  0  0  0  0  0  0  0  0  0
  -19.3613   37.9669  -22.5740 N   0  0  0  0  0  0  0  0  0  0  0  0
  -19.7320   38.6239  -21.3685 C   0  0  0  0  0  0  0  0  0  0  0  0
  -19.1147   39.9127  -21.2392 C   0  0  0  0  0  0  0  0  0  0  0  0
  -17.9200   40.3947  -20.8880 C   0  0  0  0  0  0  0  0  0  0  0  0
  -17.6468   41.6926  -20.8790 C   0  0  0  0  0  0  0  0  0  0  0  0
  -16.4762   42.3433  -20.5465 N   0  0  0  0  0  0  0  0  0  0  0  0
  -16.3095   43.6389  -20.5721 C   0  0  0  0  0  0  0  0  0  0  0  0
  -15.0189   44.2330  -20.1996 C   0  0  0  0  0  0  0  0  0  0  0  0
  -13.8541   43.6627  -20.6216 C   0  0  0  0  0  0  0  0  0  0  0  0
  -12.6256   44.2025  -20.2840 C   0  0  0  0  0  0  0  0  0  0  0  0
  -12.5628   45.3372  -19.5075 C   0  0  0  0  0  0  0  0  0  0  0  0
  -13.7411   45.9104  -19.0832 C   0  0  0  0  0  0  0  0  0  0  0  0
  -13.9758   46.9895  -18.3368 N   0  0  0  0  0  0  0  0  0  0  0  0
  -15.2562   47.1704  -18.1786 N   0  0  0  0  0  0  0  0  0  0  0  0
  -15.9032   46.1736  -18.8451 C   0  0  0  0  0  0  0  0  0  0  0  0
  -14.9673   45.3661  -19.4239 C   0  0  0  0  0  0  0  0  0  0  0  0
  -17.2804   44.4935  -20.9322 N   0  0  0  0  0  0  0  0  0  0  0  0
  -18.4771   43.9689  -21.2806 C   0  0  0  0  0  0  0  0  0  0  0  0
  -19.5713   44.7949  -21.6781 N   0  0  0  0  0  0  0  0  0  0  0  0
  -20.8050   44.2377  -22.1630 C   0  0  0  0  0  0  0  0  0  0  0  0
  -21.9915   45.0456  -21.7234 C   0  0  0  0  0  0  0  0  0  0  0  0
  -21.6229   46.0795  -20.8482 O   0  0  0  0  0  0  0  0  0  0  0  0
  -20.7401   46.9367  -21.5149 C   0  0  0  0  0  0  0  0  0  0  0  0
  -19.4050   46.2263  -21.5796 C   0  0  0  0  0  0  0  0  0  0  0  0
  -18.6442   42.5743  -21.2493 C   0  0  0  0  0  0  0  0  0  0  0  0
  -20.0038   41.5106  -21.6180 S   0  0  0  0  0  0  0  0  0  0  0  0
  -20.0839   36.7842  -22.9088 C   0  0  0  0  0  0  0  0  0  0  0  0
  -21.2894   37.0348  -23.7772 C   0  0  0  0  0  0  0  0  0  0  0  0
  1  2  1  0
  2  3  2  0
  2  4  2  0
  2  5  1  0
  5  6  1  0
  6  7  1  0
  7  8  1  0
  8  9  1  0
  9 10  1  0
 10 11  2  0
 11 12  1  0
 12 13  2  0
 13 14  1  0
 14 15  1  0
 15 16  2  0
 16 17  1  0
 17 18  2  0
 18 19  1  0
 19 20  1  0
 20 21  1  0
 21 22  2  0
 22 23  1  0
 14 24  2  0
 24 25  1  0
 25 26  1  0
 26 27  1  0
 27 28  1  0
 28 29  1  0
 29 30  1  0
 30 31  1  0
 25 32  2  0
 32 33  1  0
  8 34  1  0
 34 35  1  0
 35  5  1  0
 33 10  1  0
 32 12  1  0
 23 15  1  0
 31 26  1  0
 23 19  2  0
M  END
$$$$
