
     RDKit          3D

 30 34  0  0  0  0  0  0  0  0999 V2000
  -18.1263   39.8356  -17.7598 C   0  0  0  0  0  0  0  0  0  0  0  0
  -18.3968   40.7358  -18.9184 C   0  0  0  0  0  0  0  0  0  0  0  0
  -18.2671   42.0499  -19.0150 N   0  0  0  0  0  0  0  0  0  0  0  0
  -18.6250   42.4746  -20.2640 C   0  0  0  0  0  0  0  0  0  0  0  0
  -18.5949   43.8460  -20.7454 C   0  0  0  0  0  0  0  0  0  0  0  0
  -19.5592   44.5459  -21.4478 C   0  0  0  0  0  0  0  0  0  0  0  0
  -19.0946   45.7837  -21.7027 N   0  0  0  0  0  0  0  0  0  0  0  0
  -17.8784   45.9279  -21.2036 N   0  0  0  0  0  0  0  0  0  0  0  0
  -16.9990   47.0825  -21.2407 C   0  0  0  0  0  0  0  0  0  0  0  0
  -17.5446   44.7463  -20.6064 C   0  0  0  0  0  0  0  0  0  0  0  0
  -16.2921   44.4600  -19.9250 C   0  0  0  0  0  0  0  0  0  0  0  0
  -15.7377   45.2521  -18.9432 C   0  0  0  0  0  0  0  0  0  0  0  0
  -14.5262   44.8588  -18.3770 C   0  0  0  0  0  0  0  0  0  0  0  0
  -13.8794   43.7067  -18.7747 C   0  0  0  0  0  0  0  0  0  0  0  0
  -12.5712   43.2901  -18.1588 C   0  0  0  0  0  0  0  0  0  0  0  0
  -11.9567   44.3797  -17.6122 F   0  0  0  0  0  0  0  0  0  0  0  0
  -11.7596   42.8163  -19.1781 F   0  0  0  0  0  0  0  0  0  0  0  0
  -12.7901   42.2847  -17.2596 F   0  0  0  0  0  0  0  0  0  0  0  0
  -14.4796   42.9528  -19.7602 C   0  0  0  0  0  0  0  0  0  0  0  0
  -15.6394   43.3333  -20.2995 N   0  0  0  0  0  0  0  0  0  0  0  0
  -18.9886   41.3340  -20.9415 C   0  0  0  0  0  0  0  0  0  0  0  0
  -19.4284   41.1445  -22.2254 C   0  0  0  0  0  0  0  0  0  0  0  0
  -19.6403   42.1706  -23.1565 N   0  0  0  0  0  0  0  0  0  0  0  0
  -20.5603   42.5266  -24.1913 C   0  0  0  0  0  0  0  0  0  0  0  0
  -19.5243   43.4481  -24.8445 C   0  0  0  0  0  0  0  0  0  0  0  0
  -18.8844   43.3944  -23.4677 C   0  0  0  0  0  0  0  0  0  0  0  0
  -19.7029   39.8562  -22.6023 N   0  0  0  0  0  0  0  0  0  0  0  0
  -19.5624   38.8162  -21.7899 C   0  0  0  0  0  0  0  0  0  0  0  0
  -19.1319   39.0601  -20.5505 N   0  0  0  0  0  0  0  0  0  0  0  0
  -18.8424   40.2581  -20.0961 N   0  0  0  0  0  0  0  0  0  0  0  0
  1  2  1  0
  2  3  2  0
  3  4  1  0
  4  5  1  0
  5  6  1  0
  6  7  2  0
  7  8  1  0
  8  9  1  0
  8 10  1  0
 10 11  1  0
 11 12  2  0
 12 13  1  0
 13 14  2  0
 14 15  1  0
 15 16  1  0
 15 17  1  0
 15 18  1  0
 14 19  1  0
 19 20  2  0
  4 21  2  0
 21 22  1  0
 22 23  1  0
 23 24  1  0
 24 25  1  0
 25 26  1  0
 22 27  2  0
 27 28  1  0
 28 29  2  0
 29 30  1  0
 30  2  1  0
 10  5  2  0
 20 11  1  0
 30 21  1  0
 26 23  1  0
M  END
$$$$
