
     RDKit          3D

 44 49  0  0  0  0  0  0  0  0999 V2000
  -18.3815   22.1327  -36.1761 C   0  0  0  0  0  0  0  0  0  0  0  0
  -18.3795   21.4924  -34.9383 O   0  0  0  0  0  0  0  0  0  0  0  0
  -18.4750   20.1375  -34.7315 C   0  0  0  0  0  0  0  0  0  0  0  0
  -18.6877   19.7891  -33.5179 O   0  0  0  0  0  0  0  0  0  0  0  0
  -18.3493   19.1165  -35.7909 C   0  0  1  0  0  0  0  0  0  0  0  0
  -19.6960   18.6088  -36.1880 C   0  0  1  0  0  0  0  0  0  0  0  0
  -20.5888   19.7630  -36.4910 C   0  0  0  0  0  0  0  0  0  0  0  0
  -21.7300   19.4102  -37.4186 C   0  0  2  0  0  0  0  0  0  0  0  0
  -22.8975   20.2596  -37.0577 C   0  0  0  0  0  0  0  0  0  0  0  0
  -23.4171   21.4143  -37.4634 N   0  0  0  0  0  0  0  0  0  0  0  0
  -24.5254   21.7352  -36.7667 C   0  0  0  0  0  0  0  0  0  0  0  0
  -25.4180   22.7947  -36.7898 C   0  0  0  0  0  0  0  0  0  0  0  0
  -26.5027   22.8795  -35.9407 C   0  0  0  0  0  0  0  0  0  0  0  0
  -27.3852   23.9732  -35.9972 O   0  0  0  0  0  0  0  0  0  0  0  0
  -27.9677   24.2593  -37.2634 C   0  0  0  0  0  0  0  0  0  0  0  0
  -26.6760   21.8455  -35.0412 C   0  0  0  0  0  0  0  0  0  0  0  0
  -25.7989   20.7818  -35.0020 C   0  0  0  0  0  0  0  0  0  0  0  0
  -24.7184   20.7170  -35.8621 C   0  0  0  0  0  0  0  0  0  0  0  0
  -23.7042   19.7943  -36.0410 C   0  0  0  0  0  0  0  0  0  0  0  0
  -23.3509   18.5162  -35.4056 C   0  0  0  0  0  0  0  0  0  0  0  0
  -22.7673   17.5166  -36.3380 C   0  0  0  0  0  0  0  0  0  0  0  0
  -22.0508   18.0276  -37.4430 N   0  0  0  0  0  0  0  0  0  0  0  0
  -20.9495   17.2465  -37.8843 C   0  0  0  0  0  0  0  0  0  0  0  0
  -19.6287   17.5987  -37.3086 C   0  0  1  0  0  0  0  0  0  0  0  0
  -18.7391   18.0918  -38.4478 C   0  0  0  0  0  0  0  0  0  0  0  0
  -17.3891   18.3580  -37.8793 C   0  0  1  0  0  0  0  0  0  0  0  0
  -16.3735   18.5176  -38.8314 O   0  0  0  0  0  0  0  0  0  0  0  0
  -16.5206   18.3740  -40.1819 C   0  0  0  0  0  0  0  0  0  0  0  0
  -16.5732   17.2364  -40.6709 O   0  0  0  0  0  0  0  0  0  0  0  0
  -16.6170   19.5377  -41.0585 C   0  0  0  0  0  0  0  0  0  0  0  0
  -15.9060   19.6366  -42.2361 C   0  0  0  0  0  0  0  0  0  0  0  0
  -16.0073   20.7510  -43.0615 C   0  0  0  0  0  0  0  0  0  0  0  0
  -15.2862   20.8364  -44.2427 O   0  0  0  0  0  0  0  0  0  0  0  0
  -13.8902   20.8572  -44.2201 C   0  0  0  0  0  0  0  0  0  0  0  0
  -16.8261   21.8030  -42.7314 C   0  0  0  0  0  0  0  0  0  0  0  0
  -16.9538   22.9374  -43.5339 O   0  0  0  0  0  0  0  0  0  0  0  0
  -17.7747   22.8886  -44.6866 C   0  0  0  0  0  0  0  0  0  0  0  0
  -17.5436   21.7189  -41.5569 C   0  0  0  0  0  0  0  0  0  0  0  0
  -18.3698   22.7900  -41.2322 O   0  0  0  0  0  0  0  0  0  0  0  0
  -18.9733   22.7837  -39.9527 C   0  0  0  0  0  0  0  0  0  0  0  0
  -17.4373   20.5976  -40.7332 C   0  0  0  0  0  0  0  0  0  0  0  0
  -17.5212   19.5813  -36.9678 C   0  0  2  0  0  0  0  0  0  0  0  0
  -16.2605   19.9278  -36.5273 O   0  0  0  0  0  0  0  0  0  0  0  0
  -15.6684   18.8688  -35.8037 C   0  0  0  0  0  0  0  0  0  0  0  0
  1  2  1  0
  2  3  1  0
  3  4  2  0
  5  3  1  1
  5  6  1  0
  6  7  1  6
  8  7  1  1
  8  9  1  0
  9 10  1  0
 10 11  1  0
 11 12  2  0
 12 13  1  0
 13 14  1  0
 14 15  1  0
 13 16  2  0
 16 17  1  0
 17 18  2  0
 18 19  1  0
 19 20  1  0
 20 21  1  0
 21 22  1  0
 22 23  1  0
 24 23  1  6
 24 25  1  0
 25 26  1  0
 26 27  1  6
 27 28  1  0
 28 29  2  0
 28 30  1  0
 30 31  2  0
 31 32  1  0
 32 33  1  0
 33 34  1  0
 32 35  2  0
 35 36  1  0
 36 37  1  0
 35 38  1  0
 38 39  1  0
 39 40  1  0
 38 41  2  0
 26 42  1  0
 42 43  1  1
 43 44  1  0
 42  5  1  0
 24  6  1  0
 41 30  1  0
 22  8  1  0
 19  9  2  0
 18 11  1  0
M  END
$$$$
