
     RDKit          3D

 29 32  0  0  0  0  0  0  0  0999 V2000
  -14.4449   43.3679  -18.8793 N   0  0  0  0  0  0  0  0  0  0  0  0
  -14.8961   44.6763  -19.2019 C   0  0  0  0  0  0  0  0  0  0  0  0
  -14.2092   45.7959  -18.8872 N   0  0  0  0  0  0  0  0  0  0  0  0
  -14.6516   47.0243  -19.2002 C   0  0  0  0  0  0  0  0  0  0  0  0
  -15.8234   47.1551  -19.8528 N   0  0  0  0  0  0  0  0  0  0  0  0
  -16.5579   46.0900  -20.1969 C   0  0  0  0  0  0  0  0  0  0  0  0
  -16.0920   44.8253  -19.8688 C   0  0  0  0  0  0  0  0  0  0  0  0
  -16.7630   43.5588  -20.1651 C   0  0  0  0  0  0  0  0  0  0  0  0
  -16.0918   42.5295  -19.9599 O   0  0  0  0  0  0  0  0  0  0  0  0
  -18.1023   43.3640  -20.6639 N   0  0  0  0  0  0  0  0  0  0  0  0
  -18.5587   42.0244  -20.7644 C   0  0  0  0  0  0  0  0  0  0  0  0
  -17.8666   41.1626  -21.6159 C   0  0  0  0  0  0  0  0  0  0  0  0
  -18.2125   39.8579  -21.7936 C   0  0  0  0  0  0  0  0  0  0  0  0
  -19.3021   39.3739  -21.0931 C   0  0  0  0  0  0  0  0  0  0  0  0
  -19.6872   37.9735  -21.2744 C   0  0  1  0  0  0  0  0  0  0  0  0
  -20.8904   37.7838  -22.1732 C   0  0  0  0  0  0  0  0  0  0  0  0
  -21.2253   36.3276  -22.1740 C   0  0  0  0  0  0  0  0  0  0  0  0
  -20.0737   35.4540  -22.6451 C   0  0  2  0  0  0  0  0  0  0  0  0
  -20.5054   34.0305  -22.5469 C   0  0  0  0  0  0  0  0  0  0  0  0
  -19.5569   33.0447  -23.0941 C   0  0  0  0  0  0  0  0  0  0  0  0
  -19.3805   31.9276  -22.5654 O   0  0  0  0  0  0  0  0  0  0  0  0
  -18.8301   33.3520  -24.2310 O   0  0  0  0  0  0  0  0  0  0  0  0
  -18.8742   35.7387  -21.7672 C   0  0  0  0  0  0  0  0  0  0  0  0
  -18.5413   37.2291  -21.9281 C   0  0  0  0  0  0  0  0  0  0  0  0
  -19.9949   40.1942  -20.2554 C   0  0  0  0  0  0  0  0  0  0  0  0
  -19.6280   41.5136  -20.0893 C   0  0  0  0  0  0  0  0  0  0  0  0
  -19.0485   44.3584  -21.0770 C   0  0  0  0  0  0  0  0  0  0  0  0
  -18.4290   45.5530  -21.7522 C   0  0  0  0  0  0  0  0  0  0  0  0
  -17.7353   46.4080  -20.8633 O   0  0  0  0  0  0  0  0  0  0  0  0
  1  2  1  0
  2  3  2  0
  3  4  1  0
  4  5  2  0
  5  6  1  0
  6  7  2  0
  7  8  1  0
  8  9  2  0
  8 10  1  0
 10 11  1  0
 11 12  2  0
 12 13  1  0
 13 14  2  0
 15 14  1  6
 15 16  1  0
 16 17  1  0
 17 18  1  0
 18 19  1  1
 19 20  1  0
 20 21  2  0
 20 22  1  0
 18 23  1  0
 23 24  1  0
 14 25  1  0
 25 26  2  0
 10 27  1  0
 27 28  1  0
 28 29  1  0
  7  2  1  0
 26 11  1  0
 29  6  1  0
 24 15  1  0
M  END
$$$$
