
     RDKit          3D

 19 21  0  0  0  0  0  0  0  0999 V2000
  -24.9263   11.7626  -20.1799 O   0  0  0  0  0  0  0  0  0  0  0  0
  -24.7044   12.9055  -20.7799 C   0  0  0  0  0  0  0  0  0  0  0  0
  -23.3279   13.2727  -20.9721 C   0  0  0  0  0  0  0  0  0  0  0  0
  -22.6600   13.7272  -19.8244 C   0  0  0  0  0  0  0  0  0  0  0  0
  -21.3223   14.0294  -19.8241 C   0  0  0  0  0  0  0  0  0  0  0  0
  -20.6045   13.8845  -20.9847 C   0  0  0  0  0  0  0  0  0  0  0  0
  -18.8889   14.2679  -21.0063 Cl  0  0  0  0  0  0  0  0  0  0  0  0
  -21.2648   13.4384  -22.1029 C   0  0  0  0  0  0  0  0  0  0  0  0
  -22.5961   13.1298  -22.1286 C   0  0  0  0  0  0  0  0  0  0  0  0
  -23.3644   12.4966  -23.5811 Cl  0  0  0  0  0  0  0  0  0  0  0  0
  -25.8853   13.5771  -21.1340 N   0  0  0  0  0  0  0  0  0  0  0  0
  -25.9397   14.7988  -21.7084 N   0  0  0  0  0  0  0  0  0  0  0  0
  -27.1608   15.1429  -22.0037 N   0  0  0  0  0  0  0  0  0  0  0  0
  -27.9892   14.1523  -21.6369 C   0  0  0  0  0  0  0  0  0  0  0  0
  -29.3521   14.0130  -21.7532 C   0  0  0  0  0  0  0  0  0  0  0  0
  -29.9126   12.8362  -21.3048 C   0  0  0  0  0  0  0  0  0  0  0  0
  -29.1128   11.8504  -20.7639 C   0  0  0  0  0  0  0  0  0  0  0  0
  -27.7511   11.9946  -20.6487 C   0  0  0  0  0  0  0  0  0  0  0  0
  -27.1635   13.1639  -21.0871 C   0  0  0  0  0  0  0  0  0  0  0  0
  1  2  2  0
  2  3  1  0
  3  4  2  0
  4  5  1  0
  5  6  2  0
  6  7  1  0
  6  8  1  0
  8  9  2  0
  9 10  1  0
  2 11  1  0
 11 12  1  0
 12 13  2  0
 13 14  1  0
 14 15  2  0
 15 16  1  0
 16 17  2  0
 17 18  1  0
 18 19  2  0
  9  3  1  0
 19 11  1  0
 19 14  1  0
M  END
$$$$
