
     RDKit          3D

 35 38  0  0  0  0  0  0  0  0999 V2000
  -12.0031   16.5757  -39.9910 C   0  0  0  0  0  0  0  0  0  0  0  0
  -13.3716   16.5898  -40.2744 O   0  0  0  0  0  0  0  0  0  0  0  0
  -14.0701   16.6601  -39.0662 C   0  0  0  0  0  0  0  0  0  0  0  0
  -14.8188   17.9434  -38.9972 C   0  0  0  0  0  0  0  0  0  0  0  0
  -14.8504   18.6813  -40.0166 O   0  0  0  0  0  0  0  0  0  0  0  0
  -15.4769   18.3106  -37.7976 N   0  0  0  0  0  0  0  0  0  0  0  0
  -16.7918   18.8675  -37.7839 C   0  0  0  0  0  0  0  0  0  0  0  0
  -17.0020   19.8489  -38.8881 C   0  0  0  0  0  0  0  0  0  0  0  0
  -17.8235   19.6395  -39.8842 C   0  0  0  0  0  0  0  0  0  0  0  0
  -18.6307   20.6627  -40.5301 C   0  0  0  0  0  0  0  0  0  0  0  0
  -18.1998   21.3806  -41.6216 C   0  0  0  0  0  0  0  0  0  0  0  0
  -18.9713   22.3484  -42.2277 C   0  0  0  0  0  0  0  0  0  0  0  0
  -20.2222   22.5916  -41.7036 C   0  0  0  0  0  0  0  0  0  0  0  0
  -21.0189   23.5134  -42.2399 N   0  0  0  0  0  0  0  0  0  0  0  0
  -22.2417   23.7664  -41.7439 C   0  0  0  0  0  0  0  0  0  0  0  0
  -22.6769   23.0731  -40.6783 N   0  0  0  0  0  0  0  0  0  0  0  0
  -21.9438   22.1141  -40.0589 C   0  0  0  0  0  0  0  0  0  0  0  0
  -22.4372   21.4096  -38.9455 N   0  0  0  0  0  0  0  0  0  0  0  0
  -23.6449   21.8531  -38.3250 C   0  0  0  0  0  0  0  0  0  0  0  0
  -24.8225   21.9552  -39.0460 C   0  0  0  0  0  0  0  0  0  0  0  0
  -25.9657   22.3628  -38.4029 C   0  0  0  0  0  0  0  0  0  0  0  0
  -25.9754   22.6765  -37.0471 C   0  0  0  0  0  0  0  0  0  0  0  0
  -27.1034   23.0831  -36.3914 O   0  0  0  0  0  0  0  0  0  0  0  0
  -27.6783   24.3176  -36.3671 C   0  0  0  0  0  0  0  0  0  0  0  0
  -28.2834   24.7271  -35.1931 C   0  0  0  0  0  0  0  0  0  0  0  0
  -28.8779   25.9862  -35.1477 C   0  0  0  0  0  0  0  0  0  0  0  0
  -28.8668   26.8083  -36.2432 C   0  0  0  0  0  0  0  0  0  0  0  0
  -29.5108   28.1651  -36.1848 C   0  0  0  0  0  0  0  0  0  0  0  0
  -28.2764   26.3960  -37.3727 N   0  0  0  0  0  0  0  0  0  0  0  0
  -27.6924   25.1731  -37.4355 C   0  0  0  0  0  0  0  0  0  0  0  0
  -24.7960   22.5666  -36.3545 C   0  0  0  0  0  0  0  0  0  0  0  0
  -24.6984   22.8683  -34.8811 C   0  0  0  0  0  0  0  0  0  0  0  0
  -23.6370   22.1555  -36.9963 C   0  0  0  0  0  0  0  0  0  0  0  0
  -20.6854   21.8744  -40.5923 C   0  0  0  0  0  0  0  0  0  0  0  0
  -19.8893   20.9180  -40.0149 C   0  0  0  0  0  0  0  0  0  0  0  0
  1  2  1  0
  2  3  1  0
  3  4  1  0
  4  5  2  0
  4  6  1  0
  6  7  1  0
  7  8  1  0
  8  9  2  0
  9 10  1  0
 10 11  2  0
 11 12  1  0
 12 13  2  0
 13 14  1  0
 14 15  2  0
 15 16  1  0
 16 17  2  0
 17 18  1  0
 18 19  1  0
 19 20  2  0
 20 21  1  0
 21 22  2  0
 22 23  1  0
 23 24  1  0
 24 25  2  0
 25 26  1  0
 26 27  2  0
 27 28  1  0
 27 29  1  0
 29 30  2  0
 22 31  1  0
 31 32  1  0
 31 33  2  0
 17 34  1  0
 34 35  2  0
 35 10  1  0
 34 13  1  0
 33 19  1  0
 30 24  1  0
M  END
$$$$
