
     RDKit          3D

 21 23  0  0  0  0  0  0  0  0999 V2000
  -13.9468   46.8836  -17.9231 C   0  0  0  0  0  0  0  0  0  0  0  0
  -15.0536   46.8745  -18.7713 O   0  0  0  0  0  0  0  0  0  0  0  0
  -15.6732   45.6895  -19.1887 C   0  0  0  0  0  0  0  0  0  0  0  0
  -15.0641   44.4646  -19.0201 C   0  0  0  0  0  0  0  0  0  0  0  0
  -15.7006   43.2924  -19.4443 C   0  0  0  0  0  0  0  0  0  0  0  0
  -16.9492   43.3256  -20.0407 C   0  0  0  0  0  0  0  0  0  0  0  0
  -17.6615   42.1033  -20.5090 C   0  0  2  0  0  0  0  0  0  0  0  0
  -16.9228   41.4112  -21.6213 C   0  0  0  0  0  0  0  0  0  0  0  0
  -17.8405   40.5254  -22.4121 C   0  0  0  0  0  0  0  0  0  0  0  0
  -17.3704   39.5436  -23.0077 O   0  0  0  0  0  0  0  0  0  0  0  0
  -19.2563   40.7939  -22.4921 C   0  0  0  0  0  0  0  0  0  0  0  0
  -20.1142   40.0871  -23.3290 C   0  0  0  0  0  0  0  0  0  0  0  0
  -19.5879   39.0842  -24.1181 O   0  0  0  0  0  0  0  0  0  0  0  0
  -21.4628   40.3885  -23.3639 C   0  0  0  0  0  0  0  0  0  0  0  0
  -21.9922   41.3802  -22.5858 C   0  0  0  0  0  0  0  0  0  0  0  0
  -23.3541   41.6318  -22.6690 O   0  0  0  0  0  0  0  0  0  0  0  0
  -21.1439   42.0873  -21.7508 C   0  0  0  0  0  0  0  0  0  0  0  0
  -19.7908   41.7872  -21.7137 C   0  0  0  0  0  0  0  0  0  0  0  0
  -18.9598   42.4999  -20.8777 O   0  0  0  0  0  0  0  0  0  0  0  0
  -17.5153   44.5816  -20.1855 C   0  0  0  0  0  0  0  0  0  0  0  0
  -16.9176   45.7508  -19.7802 C   0  0  0  0  0  0  0  0  0  0  0  0
  1  2  1  0
  2  3  1  0
  3  4  2  0
  4  5  1  0
  5  6  2  0
  7  6  1  6
  7  8  1  0
  8  9  1  0
  9 10  2  0
  9 11  1  0
 11 12  2  0
 12 13  1  0
 12 14  1  0
 14 15  2  0
 15 16  1  0
 15 17  1  0
 17 18  2  0
 18 19  1  0
  6 20  1  0
 20 21  2  0
 21  3  1  0
 19  7  1  0
 18 11  1  0
M  END
$$$$
