
     RDKit          3D

 13 14  0  0  0  0  0  0  0  0999 V2000
  -18.3122   40.6774  -17.4576 N   0  0  0  0  0  0  0  0  0  0  0  0
  -18.6150   41.0065  -19.1367 S   0  0  0  0  0  6  0  0  0  0  0  0
  -20.0117   41.5843  -19.2122 O   0  0  0  0  0  0  0  0  0  0  0  0
  -18.5126   39.7438  -19.9311 O   0  0  0  0  0  0  0  0  0  0  0  0
  -17.4715   42.2044  -19.7090 C   0  0  0  0  0  0  0  0  0  0  0  0
  -17.8023   43.0431  -20.7506 C   0  0  0  0  0  0  0  0  0  0  0  0
  -16.8486   43.9555  -21.1396 C   0  0  0  0  0  0  0  0  0  0  0  0
  -15.5929   44.0433  -20.5176 C   0  0  0  0  0  0  0  0  0  0  0  0
  -15.2748   43.2055  -19.4843 C   0  0  0  0  0  0  0  0  0  0  0  0
  -16.2475   42.2799  -19.0925 C   0  0  0  0  0  0  0  0  0  0  0  0
  -13.8992   43.4778  -18.9880 C   0  0  0  0  0  0  0  0  0  0  0  0
  -13.6375   44.8671  -19.5021 C   0  0  0  0  0  0  0  0  0  0  0  0
  -14.4417   44.9663  -20.7994 C   0  0  0  0  0  0  0  0  0  0  0  0
  1  2  1  0
  2  3  2  0
  2  4  2  0
  2  5  1  0
  5  6  2  0
  6  7  1  0
  7  8  2  0
  8  9  1  0
  9 10  2  0
  9 11  1  0
 11 12  1  0
 12 13  1  0
 10  5  1  0
 13  8  1  0
M  END
$$$$
