
     RDKit          3D

 20 21  0  0  0  0  0  0  0  0999 V2000
  -19.8698   22.7181  -33.4765 N   0  0  0  0  0  0  0  0  0  0  0  0
  -20.8669   21.7611  -33.1084 C   0  0  0  0  0  0  0  0  0  0  0  0
  -21.7112   21.4342  -33.9813 O   0  0  0  0  0  0  0  0  0  0  0  0
  -20.9294   21.1638  -31.7569 C   0  0  0  0  0  0  0  0  0  0  0  0
  -22.0424   20.2694  -31.6694 N   0  0  0  0  0  0  0  0  0  0  0  0
  -21.7328   19.0360  -31.0322 C   0  0  0  0  0  0  0  0  0  0  0  0
  -20.8089   18.1294  -31.8138 C   0  0  0  0  0  0  0  0  0  0  0  0
  -20.6574   16.8115  -31.0507 C   0  0  0  0  0  0  0  0  0  0  0  0
  -19.3014   16.2592  -31.3737 C   0  0  0  0  0  0  0  0  0  0  0  0
  -18.7765   16.4012  -32.6388 C   0  0  0  0  0  0  0  0  0  0  0  0
  -17.5113   15.9356  -32.9915 C   0  0  0  0  0  0  0  0  0  0  0  0
  -16.7549   15.3054  -32.0257 C   0  0  0  0  0  0  0  0  0  0  0  0
  -17.2839   15.1617  -30.7497 C   0  0  0  0  0  0  0  0  0  0  0  0
  -18.5345   15.6239  -30.4110 C   0  0  0  0  0  0  0  0  0  0  0  0
  -21.6926   15.8201  -31.4561 C   0  0  0  0  0  0  0  0  0  0  0  0
  -22.4516   15.1657  -30.5145 C   0  0  0  0  0  0  0  0  0  0  0  0
  -23.4332   14.2508  -30.8746 C   0  0  0  0  0  0  0  0  0  0  0  0
  -23.6619   13.9833  -32.2177 C   0  0  0  0  0  0  0  0  0  0  0  0
  -22.8815   14.6572  -33.1476 C   0  0  0  0  0  0  0  0  0  0  0  0
  -21.9083   15.5651  -32.7838 C   0  0  0  0  0  0  0  0  0  0  0  0
  1  2  1  0
  2  3  2  0
  2  4  1  0
  4  5  1  0
  5  6  1  0
  6  7  1  0
  7  8  1  0
  8  9  1  0
  9 10  2  0
 10 11  1  0
 11 12  2  0
 12 13  1  0
 13 14  2  0
  8 15  1  0
 15 16  2  0
 16 17  1  0
 17 18  2  0
 18 19  1  0
 19 20  2  0
 14  9  1  0
 20 15  1  0
M  END
$$$$
