
     RDKit          3D

 34 37  0  0  0  0  0  0  0  0999 V2000
  -12.2354   45.9708  -18.0485 C   0  0  0  0  0  0  0  0  0  0  0  0
  -12.8105   46.9417  -18.9018 O   0  0  0  0  0  0  0  0  0  0  0  0
  -13.9980   46.6165  -19.5546 C   0  0  0  0  0  0  0  0  0  0  0  0
  -14.6367   45.4057  -19.4140 C   0  0  0  0  0  0  0  0  0  0  0  0
  -15.8096   45.1010  -20.0661 C   0  0  0  0  0  0  0  0  0  0  0  0
  -16.4562   43.8883  -19.9297 C   0  0  0  0  0  0  0  0  0  0  0  0
  -17.6496   43.5719  -20.5887 C   0  0  0  0  0  0  0  0  0  0  0  0
  -18.1968   44.5086  -21.4016 N   0  0  0  0  0  0  0  0  0  0  0  0
  -19.4382   44.3385  -22.1017 C   0  0  0  0  0  0  0  0  0  0  0  0
  -19.2632   43.6731  -23.4414 C   0  0  0  0  0  0  0  0  0  0  0  0
  -20.5631   43.5203  -24.2110 C   0  0  0  0  0  0  0  0  0  0  0  0
  -21.5446   42.7265  -23.5351 N   0  0  0  0  0  0  0  0  0  0  0  0
  -22.7331   42.5751  -24.2864 C   0  0  0  0  0  0  0  0  0  0  0  0
  -23.6115   43.7481  -24.4816 C   0  0  0  0  0  0  0  0  0  0  0  0
  -23.0672   44.8359  -25.1345 O   0  0  0  0  0  0  0  0  0  0  0  0
  -17.5854   45.7229  -21.5645 C   0  0  0  0  0  0  0  0  0  0  0  0
  -18.0867   46.5928  -22.3172 O   0  0  0  0  0  0  0  0  0  0  0  0
  -16.4104   46.0108  -20.9055 C   0  0  0  0  0  0  0  0  0  0  0  0
  -15.7767   47.2363  -21.0567 C   0  0  0  0  0  0  0  0  0  0  0  0
  -14.6023   47.5420  -20.4042 C   0  0  0  0  0  0  0  0  0  0  0  0
  -13.9842   48.7737  -20.5691 O   0  0  0  0  0  0  0  0  0  0  0  0
  -14.5989   49.7234  -21.4359 C   0  0  0  0  0  0  0  0  0  0  0  0
  -18.0703   42.2257  -20.2516 C   0  0  0  0  0  0  0  0  0  0  0  0
  -19.1425   41.4509  -20.6305 C   0  0  0  0  0  0  0  0  0  0  0  0
  -19.2378   40.1792  -20.1144 C   0  0  0  0  0  0  0  0  0  0  0  0
  -18.3203   39.6494  -19.2458 C   0  0  0  0  0  0  0  0  0  0  0  0
  -17.2470   40.4338  -18.8716 C   0  0  0  0  0  0  0  0  0  0  0  0
  -17.1147   41.7244  -19.3708 C   0  0  0  0  0  0  0  0  0  0  0  0
  -16.0880   42.7214  -19.1382 C   0  0  0  0  0  0  0  0  0  0  0  0
  -15.1009   42.5711  -18.3995 O   0  0  0  0  0  0  0  0  0  0  0  0
  -18.6807   38.3564  -18.9005 O   0  0  0  0  0  0  0  0  0  0  0  0
  -20.0185   38.1542  -19.3342 C   0  0  0  0  0  0  0  0  0  0  0  0
  -20.1951   39.1675  -20.3058 O   0  0  0  0  0  0  0  0  0  0  0  0
  -18.6519   43.7193  -21.5000 Cl  0  0  0  0  0  0  0  0  0  0  0  0
  1  2  1  0
  2  3  1  0
  3  4  2  0
  4  5  1  0
  5  6  1  0
  6  7  2  0
  7  8  1  0
  8  9  1  0
  9 10  1  0
 10 11  1  0
 11 12  1  0
 12 13  1  0
 13 14  1  0
 14 15  1  0
  8 16  1  0
 16 17  2  0
 16 18  1  0
 18 19  1  0
 19 20  2  0
 20 21  1  0
 21 22  1  0
  7 23  1  0
 23 24  2  0
 24 25  1  0
 25 26  2  0
 26 27  1  0
 27 28  2  0
 28 29  1  0
 29 30  2  0
 26 31  1  0
 31 32  1  0
 32 33  1  0
 20  3  1  0
 28 23  1  0
 18  5  2  0
 33 25  1  0
 29  6  1  0
M  END
$$$$
