
     RDKit          3D

 26 28  0  0  0  0  0  0  0  0999 V2000
  -20.6865   37.0505  -23.1520 Cl  0  0  0  0  0  0  0  0  0  0  0  0
  -19.5272   32.3116  -23.3895 C   0  0  0  0  0  0  0  0  0  0  0  0
  -19.0060   33.6628  -23.1774 N   0  0  0  0  0  0  0  0  0  0  0  0
  -19.7808   34.7187  -22.9404 C   0  0  0  0  0  0  0  0  0  0  0  0
  -18.9472   35.8029  -22.7950 C   0  0  0  0  0  0  0  0  0  0  0  0
  -19.4081   37.1611  -22.5491 C   0  0  0  0  0  0  0  0  0  0  0  0
  -20.3717   37.6899  -23.3244 N   0  0  0  0  0  0  0  0  0  0  0  0
  -20.8229   38.9189  -23.1283 C   0  0  0  0  0  0  0  0  0  0  0  0
  -21.8485   39.4580  -23.9668 N   0  0  0  0  0  0  0  0  0  0  0  0
  -22.4462   38.7028  -25.0405 C   0  0  2  0  0  0  0  0  0  0  0  0
  -23.4043   39.6191  -25.7782 C   0  0  0  0  0  0  0  0  0  0  0  0
  -24.2985   38.9214  -26.7421 C   0  0  0  0  0  0  0  0  0  0  0  0
  -24.9546   37.7211  -26.0943 C   0  0  0  0  0  0  0  0  0  0  0  0
  -23.8649   36.7968  -25.5955 C   0  0  0  0  0  0  0  0  0  0  0  0
  -23.1900   37.5316  -24.4270 C   0  0  2  0  0  0  0  0  0  0  0  0
  -24.2279   37.9288  -23.5255 N   0  0  0  0  0  0  0  0  0  0  0  0
  -20.3098   39.6883  -22.1168 C   0  0  0  0  0  0  0  0  0  0  0  0
  -20.7914   40.9486  -21.9378 F   0  0  0  0  0  0  0  0  0  0  0  0
  -19.3259   39.1989  -21.2956 C   0  0  0  0  0  0  0  0  0  0  0  0
  -18.8665   37.9104  -21.5154 C   0  0  0  0  0  0  0  0  0  0  0  0
  -17.8519   37.6276  -20.5075 C   0  0  0  0  0  0  0  0  0  0  0  0
  -17.1995   36.5519  -20.3764 O   0  0  0  0  0  0  0  0  0  0  0  0
  -17.7321   38.7822  -19.6989 N   0  0  0  0  0  0  0  0  0  0  0  0
  -18.6119   39.8118  -20.1495 C   0  0  0  0  0  0  0  0  0  0  0  0
  -17.6656   35.3522  -22.9540 C   0  0  0  0  0  0  0  0  0  0  0  0
  -17.7490   34.0133  -23.1901 N   0  0  0  0  0  0  0  0  0  0  0  0
  2  3  1  0
  3  4  1  0
  4  5  2  0
  5  6  1  0
  6  7  2  0
  7  8  1  0
  8  9  1  0
 10  9  1  1
 10 11  1  0
 11 12  1  0
 12 13  1  0
 13 14  1  0
 14 15  1  0
 15 16  1  1
  8 17  2  0
 17 18  1  0
 17 19  1  0
 19 20  2  0
 20 21  1  0
 21 22  2  0
 21 23  1  0
 23 24  1  0
  5 25  1  0
 25 26  2  0
 26  3  1  0
 20  6  1  0
 15 10  1  0
 24 19  1  0
M  END
$$$$
