
     RDKit          3D

 15 16  0  0  0  0  0  0  0  0999 V2000
  -13.0318   -4.1323  -36.1032 C   0  0  0  0  0  0  0  0  0  0  0  0
  -13.1568   -3.5786  -34.7647 N   0  0  0  0  0  0  0  0  0  0  0  0
  -12.8610   -2.2279  -34.4618 C   0  0  0  0  0  0  0  0  0  0  0  0
  -12.7003   -1.3919  -35.3863 O   0  0  0  0  0  0  0  0  0  0  0  0
  -12.7539   -1.8548  -33.1301 O   0  0  0  0  0  0  0  0  0  0  0  0
  -12.6317   -0.4947  -32.8273 C   0  0  0  0  0  0  0  0  0  0  0  0
  -11.4241    0.1149  -33.0999 C   0  0  0  0  0  0  0  0  0  0  0  0
  -11.2871    1.4577  -32.8067 C   0  0  0  0  0  0  0  0  0  0  0  0
  -12.3139    2.2019  -32.2536 C   0  0  0  0  0  0  0  0  0  0  0  0
  -13.5122    1.5761  -31.9883 C   0  0  0  0  0  0  0  0  0  0  0  0
  -14.5623    2.3108  -31.4293 C   0  0  0  0  0  0  0  0  0  0  0  0
  -15.7531    1.6624  -31.1725 C   0  0  0  0  0  0  0  0  0  0  0  0
  -15.8829    0.3172  -31.4689 C   0  0  0  0  0  0  0  0  0  0  0  0
  -14.8409   -0.4189  -32.0254 C   0  0  0  0  0  0  0  0  0  0  0  0
  -13.6529    0.2329  -32.2803 C   0  0  0  0  0  0  0  0  0  0  0  0
  1  2  1  0
  2  3  1  0
  3  4  2  0
  3  5  1  0
  5  6  1  0
  6  7  2  0
  7  8  1  0
  8  9  2  0
  9 10  1  0
 10 11  2  0
 11 12  1  0
 12 13  2  0
 13 14  1  0
 14 15  2  0
 15  6  1  0
 15 10  1  0
M  END
$$$$
