
     RDKit          3D

 34 35  0  0  0  0  0  0  0  0999 V2000
  -17.7691   16.8555  -36.3338 N   0  0  0  0  0  0  0  0  0  0  0  0
  -17.5154   18.0848  -36.1357 C   0  0  0  0  0  0  0  0  0  0  0  0
  -18.5432   18.9644  -35.7283 N   0  0  0  0  0  0  0  0  0  0  0  0
  -19.8852   18.5169  -35.4139 C   0  0  0  0  0  0  0  0  0  0  0  0
  -20.0890   18.3527  -33.9259 C   0  0  0  0  0  0  0  0  0  0  0  0
  -21.2283   19.2127  -33.4728 C   0  0  0  0  0  0  0  0  0  0  0  0
  -21.5263   19.0345  -31.9972 C   0  0  0  0  0  0  0  0  0  0  0  0
  -22.9505   19.3521  -31.6688 C   0  0  0  0  0  0  0  0  0  0  0  0
  -23.1656   19.1649  -30.1875 C   0  0  0  0  0  0  0  0  0  0  0  0
  -24.1975   19.9950  -29.6367 N   0  0  0  0  0  0  0  0  0  0  0  0
  -23.8565   21.1104  -28.8391 C   0  0  0  0  0  0  0  0  0  0  0  0
  -23.2507   22.1004  -29.3425 N   0  0  0  0  0  0  0  0  0  0  0  0
  -24.2039   21.0991  -27.4609 N   0  0  0  0  0  0  0  0  0  0  0  0
  -24.6471   19.8946  -26.8301 C   0  0  0  0  0  0  0  0  0  0  0  0
  -24.9416   18.8951  -27.5395 N   0  0  0  0  0  0  0  0  0  0  0  0
  -24.7224   19.8526  -25.4208 N   0  0  0  0  0  0  0  0  0  0  0  0
  -25.3531   18.7820  -24.7408 C   0  0  0  0  0  0  0  0  0  0  0  0
  -25.0144   17.4620  -25.0760 C   0  0  0  0  0  0  0  0  0  0  0  0
  -25.5759   16.3726  -24.4532 C   0  0  0  0  0  0  0  0  0  0  0  0
  -26.5060   16.6247  -23.4641 C   0  0  0  0  0  0  0  0  0  0  0  0
  -27.2574   15.2626  -22.6343 Cl  0  0  0  0  0  0  0  0  0  0  0  0
  -26.8713   17.8858  -23.0991 C   0  0  0  0  0  0  0  0  0  0  0  0
  -26.2796   18.9698  -23.7535 C   0  0  0  0  0  0  0  0  0  0  0  0
  -16.1705   18.5220  -36.3344 N   0  0  0  0  0  0  0  0  0  0  0  0
  -15.4931   18.3310  -37.5719 C   0  0  0  0  0  0  0  0  0  0  0  0
  -15.8245   17.3184  -38.2872 N   0  0  0  0  0  0  0  0  0  0  0  0
  -14.4778   19.2115  -38.0270 N   0  0  0  0  0  0  0  0  0  0  0  0
  -13.4403   18.8557  -38.9038 C   0  0  0  0  0  0  0  0  0  0  0  0
  -12.2115   18.4430  -38.4719 C   0  0  0  0  0  0  0  0  0  0  0  0
  -11.1869   18.1150  -39.3644 C   0  0  0  0  0  0  0  0  0  0  0  0
  -11.4343   18.2141  -40.7139 C   0  0  0  0  0  0  0  0  0  0  0  0
  -10.1880   17.8200  -41.8994 Cl  0  0  0  0  0  0  0  0  0  0  0  0
  -12.6622   18.6264  -41.1879 C   0  0  0  0  0  0  0  0  0  0  0  0
  -13.6503   18.9420  -40.2631 C   0  0  0  0  0  0  0  0  0  0  0  0
  1  2  2  0
  2  3  1  0
  3  4  1  0
  4  5  1  0
  5  6  1  0
  6  7  1  0
  7  8  1  0
  8  9  1  0
  9 10  1  0
 10 11  1  0
 11 12  2  0
 11 13  1  0
 13 14  1  0
 14 15  2  0
 14 16  1  0
 16 17  1  0
 17 18  2  0
 18 19  1  0
 19 20  2  0
 20 21  1  0
 20 22  1  0
 22 23  2  0
  2 24  1  0
 24 25  1  0
 25 26  2  0
 25 27  1  0
 27 28  1  0
 28 29  2  0
 29 30  1  0
 30 31  2  0
 31 32  1  0
 31 33  1  0
 33 34  2  0
 23 17  1  0
 34 28  1  0
M  END
$$$$
