
     RDKit          3D

 35 37  0  0  0  0  0  0  0  0999 V2000
  -21.6180   36.7834  -24.5258 C   0  0  0  0  0  0  0  0  0  0  0  0
  -21.5352   37.7857  -23.4284 C   0  0  0  0  0  0  0  0  0  0  0  0
  -20.3980   38.6618  -23.4669 N   0  0  0  0  0  0  0  0  0  0  0  0
  -20.4869   39.9895  -23.7695 C   0  0  0  0  0  0  0  0  0  0  0  0
  -21.3236   40.8221  -23.3546 O   0  0  0  0  0  0  0  0  0  0  0  0
  -19.5094   40.7124  -24.7364 C   0  0  0  0  0  0  0  0  0  0  0  0
  -19.7711   42.0293  -24.8467 O   0  0  0  0  0  0  0  0  0  0  0  0
  -19.0473   38.0791  -23.3404 C   0  0  1  0  0  0  0  0  0  0  0  0
  -18.0485   39.2768  -23.0313 C   0  0  0  0  0  0  0  0  0  0  0  0
  -18.3378   39.3663  -21.5857 N   0  0  0  0  0  0  0  0  0  0  0  0
  -18.5335   40.6004  -20.9093 C   0  0  0  0  0  0  0  0  0  0  0  0
  -17.7265   41.5586  -21.1340 N   0  0  0  0  0  0  0  0  0  0  0  0
  -17.6082   42.8429  -20.6474 C   0  0  0  0  0  0  0  0  0  0  0  0
  -18.6943   43.7066  -20.6847 C   0  0  0  0  0  0  0  0  0  0  0  0
  -18.5096   45.0041  -20.2305 C   0  0  0  0  0  0  0  0  0  0  0  0
  -17.2270   45.3855  -19.7524 C   0  0  0  0  0  0  0  0  0  0  0  0
  -16.2150   44.5354  -19.7297 C   0  0  0  0  0  0  0  0  0  0  0  0
  -14.9452   44.9413  -19.2537 O   0  0  0  0  0  0  0  0  0  0  0  0
  -14.6057   45.0091  -17.9185 C   0  0  0  0  0  0  0  0  0  0  0  0
  -14.6159   46.2728  -17.3740 F   0  0  0  0  0  0  0  0  0  0  0  0
  -13.2170   44.6010  -17.8344 F   0  0  0  0  0  0  0  0  0  0  0  0
  -16.3805   43.2448  -20.1788 C   0  0  0  0  0  0  0  0  0  0  0  0
  -19.5377   40.8445  -19.9280 N   0  0  0  0  0  0  0  0  0  0  0  0
  -19.1441   40.3223  -18.6042 C   0  0  0  0  0  0  0  0  0  0  0  0
  -18.8513   39.9088  -17.5940 N   0  0  0  0  0  0  0  0  0  0  0  0
  -18.4041   38.0389  -21.2009 N   0  0  0  0  0  0  0  0  0  0  0  0
  -18.8033   37.2668  -22.1704 C   0  0  0  0  0  0  0  0  0  0  0  0
  -18.9742   35.8266  -22.0588 C   0  0  0  0  0  0  0  0  0  0  0  0
  -18.2197   34.8406  -22.5397 C   0  0  0  0  0  0  0  0  0  0  0  0
  -18.3524   33.5168  -22.3570 C   0  0  0  0  0  0  0  0  0  0  0  0
  -19.4207   33.0272  -21.5549 C   0  0  0  0  0  0  0  0  0  0  0  0
  -19.7000   31.3673  -21.2159 Cl  0  0  0  0  0  0  0  0  0  0  0  0
  -20.2131   34.0370  -21.0535 C   0  0  0  0  0  0  0  0  0  0  0  0
  -21.5851   33.4695  -20.0416 Cl  0  0  0  0  0  0  0  0  0  0  0  0
  -20.0707   35.3578  -21.2447 C   0  0  0  0  0  0  0  0  0  0  0  0
  1  2  1  0
  2  3  1  0
  3  4  1  0
  4  5  2  0
  4  6  1  0
  6  7  1  0
  8  3  1  1
  8  9  1  0
  9 10  1  0
 10 11  1  0
 11 12  2  0
 12 13  1  0
 13 14  2  0
 14 15  1  0
 15 16  2  0
 16 17  1  0
 17 18  1  0
 18 19  1  0
 19 20  1  0
 19 21  1  0
 17 22  2  0
 11 23  1  0
 23 24  1  0
 24 25  3  0
 10 26  1  0
 26 27  2  0
 27 28  1  0
 28 29  2  0
 29 30  1  0
 30 31  2  0
 31 32  1  0
 31 33  1  0
 33 34  1  0
 33 35  2  0
 27  8  1  0
 35 28  1  0
 22 13  1  0
M  END
$$$$
