
     RDKit          3D

 38 41  0  0  0  0  0  0  0  0999 V2000
  -17.3600   45.7598  -20.0484 C   0  0  0  0  0  0  0  0  0  0  0  0
  -17.6023   44.4629  -20.6935 C   0  0  0  0  0  0  0  0  0  0  0  0
  -18.5932   44.3557  -21.6500 C   0  0  0  0  0  0  0  0  0  0  0  0
  -19.4220   45.4878  -22.0521 C   0  0  0  0  0  0  0  0  0  0  0  0
  -19.1540   46.4018  -23.0342 C   0  0  0  0  0  0  0  0  0  0  0  0
  -20.1977   47.2992  -23.0834 C   0  0  0  0  0  0  0  0  0  0  0  0
  -21.0750   46.9277  -22.1462 N   0  0  0  0  0  0  0  0  0  0  0  0
  -20.6085   45.8360  -21.5240 N   0  0  0  0  0  0  0  0  0  0  0  0
  -21.2428   45.1012  -20.4423 C   0  0  0  0  0  0  0  0  0  0  0  0
  -18.7845   43.1329  -22.2247 C   0  0  0  0  0  0  0  0  0  0  0  0
  -18.0331   42.0114  -21.8898 C   0  0  0  0  0  0  0  0  0  0  0  0
  -18.3232   40.7629  -22.5663 C   0  0  0  0  0  0  0  0  0  0  0  0
  -19.3071   40.7583  -23.3861 O   0  0  0  0  0  0  0  0  0  0  0  0
  -17.6302   39.5427  -22.4155 N   0  0  0  0  0  0  0  0  0  0  0  0
  -17.9643   38.3746  -23.2579 C   0  0  0  0  0  0  0  0  0  0  0  0
  -18.8162   37.4703  -22.4665 C   0  0  0  0  0  0  0  0  0  0  0  0
  -19.9330   37.9761  -21.8422 C   0  0  0  0  0  0  0  0  0  0  0  0
  -20.7829   37.1897  -21.0806 C   0  0  0  0  0  0  0  0  0  0  0  0
  -20.4622   35.8526  -20.9685 C   0  0  0  0  0  0  0  0  0  0  0  0
  -21.4776   34.7785  -20.0256 S   0  0  0  0  0  6  0  0  0  0  0  0
  -23.1388   34.9459  -20.6320 C   0  0  0  0  0  0  0  0  0  0  0  0
  -21.4349   35.2505  -18.5838 O   0  0  0  0  0  0  0  0  0  0  0  0
  -20.9712   33.3773  -20.1261 O   0  0  0  0  0  0  0  0  0  0  0  0
  -19.3352   35.3731  -21.6061 C   0  0  0  0  0  0  0  0  0  0  0  0
  -18.5345   36.1481  -22.3319 N   0  0  0  0  0  0  0  0  0  0  0  0
  -17.0708   42.1947  -20.9352 C   0  0  0  0  0  0  0  0  0  0  0  0
  -16.3489   41.2502  -20.5701 O   0  0  0  0  0  0  0  0  0  0  0  0
  -16.8605   43.3881  -20.3523 N   0  0  0  0  0  0  0  0  0  0  0  0
  -15.8415   43.5310  -19.3595 C   0  0  0  0  0  0  0  0  0  0  0  0
  -16.1736   43.3756  -18.0199 C   0  0  0  0  0  0  0  0  0  0  0  0
  -15.2058   43.5090  -17.0473 C   0  0  0  0  0  0  0  0  0  0  0  0
  -13.9040   43.7957  -17.3780 C   0  0  0  0  0  0  0  0  0  0  0  0
  -13.5597   43.9531  -18.7103 C   0  0  0  0  0  0  0  0  0  0  0  0
  -12.1521   44.2610  -19.0370 C   0  0  0  0  0  0  0  0  0  0  0  0
  -11.5362   44.9968  -18.0383 F   0  0  0  0  0  0  0  0  0  0  0  0
  -11.4161   43.0812  -19.1514 F   0  0  0  0  0  0  0  0  0  0  0  0
  -12.1332   44.9755  -20.2020 F   0  0  0  0  0  0  0  0  0  0  0  0
  -14.5376   43.8172  -19.6757 C   0  0  0  0  0  0  0  0  0  0  0  0
  1  2  1  0
  2  3  2  0
  3  4  1  0
  4  5  2  0
  5  6  1  0
  6  7  2  0
  7  8  1  0
  8  9  1  0
  3 10  1  0
 10 11  2  0
 11 12  1  0
 12 13  2  0
 12 14  1  0
 14 15  1  0
 15 16  1  0
 16 17  2  0
 17 18  1  0
 18 19  2  0
 19 20  1  0
 20 21  1  0
 20 22  2  0
 20 23  2  0
 19 24  1  0
 24 25  2  0
 11 26  1  0
 26 27  2  0
 26 28  1  0
 28 29  1  0
 29 30  2  0
 30 31  1  0
 31 32  2  0
 32 33  1  0
 33 34  1  0
 34 35  1  0
 34 36  1  0
 34 37  1  0
 33 38  2  0
 28  2  1  0
 38 29  1  0
  8  4  1  0
 25 16  1  0
M  END
$$$$
