
     RDKit          3D

 34 37  0  0  0  0  0  0  0  0999 V2000
  -22.2465   44.1612  -25.1095 C   0  0  0  0  0  0  0  0  0  0  0  0
  -21.0931   44.3650  -24.5247 C   0  0  0  0  0  0  0  0  0  0  0  0
  -20.6157   43.4631  -23.4879 C   0  0  0  0  0  0  0  0  0  0  0  0
  -21.3977   42.5883  -23.0426 O   0  0  0  0  0  0  0  0  0  0  0  0
  -19.2890   43.5428  -22.9653 N   0  0  0  0  0  0  0  0  0  0  0  0
  -18.9025   42.6579  -21.9287 C   0  0  0  0  0  0  0  0  0  0  0  0
  -19.2276   41.3165  -22.0195 C   0  0  0  0  0  0  0  0  0  0  0  0
  -18.8729   40.4109  -21.0453 C   0  0  0  0  0  0  0  0  0  0  0  0
  -19.2013   39.0502  -21.1472 C   0  0  0  0  0  0  0  0  0  0  0  0
  -19.9313   38.6876  -22.2979 N   0  0  0  0  0  0  0  0  0  0  0  0
  -20.1341   37.2899  -22.5556 C   0  0  0  0  0  0  0  0  0  0  0  0
  -21.0367   36.8945  -23.5243 C   0  0  0  0  0  0  0  0  0  0  0  0
  -21.2496   35.5545  -23.8189 C   0  0  0  0  0  0  0  0  0  0  0  0
  -20.5280   34.6351  -23.1112 C   0  0  0  0  0  0  0  0  0  0  0  0
  -20.7189   33.3080  -23.3877 F   0  0  0  0  0  0  0  0  0  0  0  0
  -19.6069   34.9970  -22.1245 C   0  0  0  0  0  0  0  0  0  0  0  0
  -18.6962   33.7817  -21.2338 Cl  0  0  0  0  0  0  0  0  0  0  0  0
  -19.4285   36.3281  -21.8658 C   0  0  0  0  0  0  0  0  0  0  0  0
  -18.8268   38.2172  -20.1758 N   0  0  0  0  0  0  0  0  0  0  0  0
  -18.1318   38.6885  -19.0958 C   0  0  0  0  0  0  0  0  0  0  0  0
  -17.8346   39.9763  -19.0250 N   0  0  0  0  0  0  0  0  0  0  0  0
  -18.1729   40.8806  -19.9570 C   0  0  0  0  0  0  0  0  0  0  0  0
  -17.8506   42.2148  -19.8687 C   0  0  0  0  0  0  0  0  0  0  0  0
  -18.2035   43.1428  -20.8478 C   0  0  0  0  0  0  0  0  0  0  0  0
  -17.8675   44.4862  -20.7388 O   0  0  0  0  0  0  0  0  0  0  0  0
  -18.8409   45.3865  -20.2993 C   0  0  0  0  0  0  0  0  0  0  0  0
  -18.2752   46.4925  -19.4405 C   0  0  0  0  0  0  0  0  0  0  0  0
  -19.3056   47.5662  -19.2015 C   0  0  0  0  0  0  0  0  0  0  0  0
  -19.4773   48.4636  -20.2665 N   0  0  0  0  0  0  0  0  0  0  0  0
  -18.3193   48.9776  -20.8901 C   0  0  0  0  0  0  0  0  0  0  0  0
  -18.4312   50.2789  -21.5931 C   0  0  0  0  0  0  0  0  0  0  0  0
  -19.5009   51.0701  -21.2869 O   0  0  0  0  0  0  0  0  0  0  0  0
  -20.0572   50.7765  -20.0699 C   0  0  0  0  0  0  0  0  0  0  0  0
  -20.5932   49.3425  -20.1939 C   0  0  0  0  0  0  0  0  0  0  0  0
  1  2  2  0
  2  3  1  0
  3  4  2  0
  3  5  1  0
  5  6  1  0
  6  7  2  0
  7  8  1  0
  8  9  2  0
  9 10  1  0
 10 11  1  0
 11 12  2  0
 12 13  1  0
 13 14  2  0
 14 15  1  0
 14 16  1  0
 16 17  1  0
 16 18  2  0
  9 19  1  0
 19 20  2  0
 20 21  1  0
 21 22  2  0
 22 23  1  0
 23 24  2  0
 24 25  1  0
 25 26  1  0
 26 27  1  0
 27 28  1  0
 28 29  1  0
 29 30  1  0
 30 31  1  0
 31 32  1  0
 32 33  1  0
 33 34  1  0
 24  6  1  0
 34 29  1  0
 22  8  1  0
 18 11  1  0
M  END
$$$$
