
     RDKit          3D

 40 44  0  0  0  0  0  0  0  0999 V2000
   -2.7390   13.6028  -10.7286 C   0  0  0  0  0  0  0  0  0  0  0  0
   -2.8403   12.6560  -11.9217 C   0  0  0  0  0  0  0  0  0  0  0  0
   -2.2762   13.3497  -13.1626 C   0  0  0  0  0  0  0  0  0  0  0  0
   -2.3146   12.3312  -14.2373 C   0  0  0  0  0  0  0  0  0  0  0  0
   -3.4702   11.5398  -14.2710 C   0  0  0  0  0  0  0  0  0  0  0  0
   -3.5606   10.4771  -15.1491 C   0  0  0  0  0  0  0  0  0  0  0  0
   -4.7790    9.6011  -15.2280 C   0  0  0  0  0  0  0  0  0  0  0  0
   -2.5071   10.2434  -15.9540 N   0  0  0  0  0  0  0  0  0  0  0  0
   -1.3910   11.0024  -15.9300 C   0  0  0  0  0  0  0  0  0  0  0  0
   -0.4739   10.6715  -16.7420 O   0  0  0  0  0  0  0  0  0  0  0  0
   -1.2612   12.0724  -15.0712 C   0  0  0  0  0  0  0  0  0  0  0  0
   -0.0636   12.9180  -15.2254 C   0  0  0  0  0  0  0  0  0  0  0  0
   -0.0673   13.8321  -16.3110 N   0  0  0  0  0  0  0  0  0  0  0  0
    0.0396   15.2356  -16.3175 C   0  0  0  0  0  0  0  0  0  0  0  0
   -0.2765   15.8578  -15.3003 O   0  0  0  0  0  0  0  0  0  0  0  0
    0.5116   16.0128  -17.4843 C   0  0  0  0  0  0  0  0  0  0  0  0
    1.5016   16.9793  -17.3739 C   0  0  0  0  0  0  0  0  0  0  0  0
    1.8929   17.7132  -18.4731 C   0  0  0  0  0  0  0  0  0  0  0  0
    2.9146   18.7540  -18.4358 C   0  0  0  0  0  0  0  0  0  0  0  0
    2.7451   19.9473  -19.1019 C   0  0  0  0  0  0  0  0  0  0  0  0
    3.6949   20.9342  -19.0621 C   0  0  0  0  0  0  0  0  0  0  0  0
    4.8163   20.7415  -18.3610 N   0  0  0  0  0  0  0  0  0  0  0  0
    5.0602   19.5814  -17.6717 C   0  0  0  0  0  0  0  0  0  0  0  0
    6.2698   19.4826  -16.9417 N   0  0  0  0  0  0  0  0  0  0  0  0
    6.9572   20.6826  -16.5247 C   0  0  0  0  0  0  0  0  0  0  0  0
    8.3306   20.6857  -17.1407 C   0  0  0  0  0  0  0  0  0  0  0  0
    8.9433   19.4042  -17.1160 N   0  0  0  0  0  0  0  0  0  0  0  0
   10.3494   19.5527  -16.7931 C   0  0  0  0  0  0  0  0  0  0  0  0
    8.3238   18.4124  -16.2940 C   0  0  0  0  0  0  0  0  0  0  0  0
    6.8446   18.2053  -16.6228 C   0  0  0  0  0  0  0  0  0  0  0  0
    4.0881   18.6023  -17.7280 C   0  0  0  0  0  0  0  0  0  0  0  0
    1.2625   17.4438  -19.6730 C   0  0  0  0  0  0  0  0  0  0  0  0
    0.2790   16.4896  -19.8066 C   0  0  0  0  0  0  0  0  0  0  0  0
   -0.1056   15.7590  -18.6937 C   0  0  0  0  0  0  0  0  0  0  0  0
   -1.1001   14.8652  -19.0619 C   0  0  0  0  0  0  0  0  0  0  0  0
   -1.2892   15.0785  -20.3796 N   0  0  0  0  0  0  0  0  0  0  0  0
   -0.4797   16.0339  -20.8210 N   0  0  0  0  0  0  0  0  0  0  0  0
   -0.3884   16.5485  -22.1818 C   0  0  0  0  0  0  0  0  0  0  0  0
   -1.6313   17.3796  -22.5351 C   0  0  0  0  0  0  0  0  0  0  0  0
   -0.2226   15.4025  -23.1654 C   0  0  0  0  0  0  0  0  0  0  0  0
  1  2  1  0
  2  3  1  0
  3  4  1  0
  4  5  1  0
  5  6  2  0
  6  7  1  0
  6  8  1  0
  8  9  1  0
  9 10  2  0
  9 11  1  0
 11 12  1  0
 12 13  1  0
 13 14  1  0
 14 15  2  0
 14 16  1  0
 16 17  2  0
 17 18  1  0
 18 19  1  0
 19 20  2  0
 20 21  1  0
 21 22  2  0
 22 23  1  0
 23 24  1  0
 24 25  1  0
 25 26  1  0
 26 27  1  0
 27 28  1  0
 27 29  1  0
 29 30  1  0
 23 31  2  0
 18 32  2  0
 32 33  1  0
 33 34  2  0
 34 35  1  0
 35 36  2  0
 36 37  1  0
 37 38  1  0
 38 39  1  0
 38 40  1  0
 11  4  2  0
 34 16  1  0
 31 19  1  0
 37 33  1  0
 30 24  1  0
M  END
$$$$
