
     RDKit          3D

 17 18  0  0  0  0  0  0  0  0999 V2000
  -11.3821   11.2970  -27.1458 C   0  0  0  0  0  0  0  0  0  0  0  0
  -12.3516   12.0734  -27.9625 C   0  0  0  0  0  0  0  0  0  0  0  0
  -12.6796   11.6541  -29.2317 C   0  0  0  0  0  0  0  0  0  0  0  0
  -13.5826   12.3964  -29.9631 C   0  0  0  0  0  0  0  0  0  0  0  0
  -14.1429   13.5359  -29.4314 C   0  0  0  0  0  0  0  0  0  0  0  0
  -15.0544   14.3561  -30.1344 N   0  0  0  0  0  0  0  0  0  0  0  0
  -16.3369   14.7481  -29.7265 C   0  0  0  0  0  0  0  0  0  0  0  0
  -17.1994   15.3685  -30.6047 C   0  0  0  0  0  0  0  0  0  0  0  0
  -18.4846   15.7446  -30.2283 C   0  0  0  0  0  0  0  0  0  0  0  0
  -19.2764   16.3105  -31.0246 O   0  0  0  0  0  0  0  0  0  0  0  0
  -18.8851   15.4905  -28.9711 N   0  0  0  0  0  0  0  0  0  0  0  0
  -18.0327   14.8855  -28.1316 C   0  0  0  0  0  0  0  0  0  0  0  0
  -18.4291   14.6525  -26.9469 O   0  0  0  0  0  0  0  0  0  0  0  0
  -16.7683   14.5104  -28.4855 N   0  0  0  0  0  0  0  0  0  0  0  0
  -13.7938   13.9385  -28.1437 C   0  0  0  0  0  0  0  0  0  0  0  0
  -12.8951   13.2096  -27.3995 C   0  0  0  0  0  0  0  0  0  0  0  0
  -12.4468   13.7053  -25.7759 Cl  0  0  0  0  0  0  0  0  0  0  0  0
  1  2  1  0
  2  3  2  0
  3  4  1  0
  4  5  2  0
  5  6  1  0
  6  7  1  0
  7  8  2  0
  8  9  1  0
  9 10  2  0
  9 11  1  0
 11 12  1  0
 12 13  2  0
 12 14  1  0
  5 15  1  0
 15 16  2  0
 16 17  1  0
 16  2  1  0
 14  7  1  0
M  END
$$$$
