
     RDKit          3D

 19 18  0  0  0  0  0  0  0  0999 V2000
  -18.8263   36.1638  -20.8369 C   0  0  0  0  0  0  0  0  0  0  0  0
  -18.5862   36.3470  -22.3396 C   0  0  0  0  0  0  0  0  0  0  0  0
  -19.1266   37.4397  -22.9251 N   0  0  0  0  0  0  0  0  0  0  0  0
  -19.1061   38.7033  -22.4078 C   0  0  0  0  0  0  0  0  0  0  0  0
  -19.4634   38.9604  -21.2250 N   0  0  0  0  0  0  0  0  0  0  0  0
  -19.5230   40.0921  -20.4633 C   0  0  0  0  0  0  0  0  0  0  0  0
  -18.5557   40.2699  -19.4485 C   0  0  0  0  0  0  0  0  0  0  0  0
  -18.4403   41.2206  -18.5460 C   0  0  0  0  0  0  0  0  0  0  0  0
  -19.3919   42.2144  -18.5788 N   0  0  0  0  0  0  0  0  0  0  0  0
  -20.3982   42.1606  -19.5481 C   0  0  0  0  0  0  0  0  0  0  0  0
  -20.4368   41.1280  -20.4253 C   0  0  0  0  0  0  0  0  0  0  0  0
  -18.7254   39.9108  -23.1286 N   0  0  0  0  0  0  0  0  0  0  0  0
  -18.2535   40.9354  -22.5862 C   0  0  0  0  0  0  0  0  0  0  0  0
  -17.6936   42.1742  -21.9587 N   0  0  0  0  0  0  0  0  0  0  0  0
  -19.1111   35.0577  -22.9641 C   0  0  0  0  0  0  0  0  0  0  0  0
  -18.9444   35.2120  -24.4720 C   0  0  0  0  0  0  0  0  0  0  0  0
  -18.3269   33.8673  -22.5111 C   0  0  0  0  0  0  0  0  0  0  0  0
  -20.5963   34.9506  -22.7333 C   0  0  0  0  0  0  0  0  0  0  0  0
  -19.4203   37.7823  -22.0448 O   0  0  0  0  0  0  0  0  0  0  0  0
  1  2  1  0
  2  3  1  0
  3  4  1  0
  4  5  2  0
  5  6  1  0
  6  7  2  0
  7  8  1  0
  8  9  2  0
  9 10  1  0
 10 11  2  0
  4 12  1  0
 12 13  1  0
 13 14  3  0
  2 15  1  0
 15 16  1  0
 15 17  1  0
 15 18  1  0
 11  6  1  0
M  END
$$$$
