
     RDKit          3D

 22 25  0  0  0  0  0  0  0  0999 V2000
  -11.1843    9.5790  -27.7524 C   0  0  0  0  0  0  0  0  0  0  0  0
  -11.6674   10.9558  -27.4388 C   0  0  0  0  0  0  0  0  0  0  0  0
  -12.9482   11.3528  -27.8157 C   0  0  0  0  0  0  0  0  0  0  0  0
  -13.4222   12.6176  -27.5399 C   0  0  0  0  0  0  0  0  0  0  0  0
  -14.7648   12.9352  -27.8796 N   0  0  0  0  0  0  0  0  0  0  0  0
  -15.7031   12.7895  -26.8890 C   0  0  0  0  0  0  0  0  0  0  0  0
  -15.2865   12.3911  -25.7817 O   0  0  0  0  0  0  0  0  0  0  0  0
  -17.0177   13.0738  -27.1325 C   0  0  0  0  0  0  0  0  0  0  0  0
  -17.4366   13.5089  -28.3611 C   0  0  0  0  0  0  0  0  0  0  0  0
  -16.4850   13.6581  -29.3708 C   0  0  0  0  0  0  0  0  0  0  0  0
  -16.9167   14.0969  -30.6050 C   0  0  0  0  0  0  0  0  0  0  0  0
  -16.0513   14.2565  -31.6031 N   0  0  0  0  0  0  0  0  0  0  0  0
  -14.7530   13.9990  -31.4403 C   0  0  0  0  0  0  0  0  0  0  0  0
  -13.6622   14.0612  -32.2342 N   0  0  0  0  0  0  0  0  0  0  0  0
  -12.5807   13.6894  -31.5730 C   0  0  0  0  0  0  0  0  0  0  0  0
  -12.9087   13.3448  -30.2452 C   0  0  0  0  0  0  0  0  0  0  0  0
  -14.2538   13.5295  -30.1399 C   0  0  0  0  0  0  0  0  0  0  0  0
  -15.1475   13.3554  -29.0782 C   0  0  0  0  0  0  0  0  0  0  0  0
  -12.5783   13.4900  -26.8702 C   0  0  0  0  0  0  0  0  0  0  0  0
  -11.3046   13.1397  -26.4788 C   0  0  0  0  0  0  0  0  0  0  0  0
  -10.8715   11.8647  -26.7752 C   0  0  0  0  0  0  0  0  0  0  0  0
   -9.6138   11.5141  -26.3905 F   0  0  0  0  0  0  0  0  0  0  0  0
  1  2  1  0
  2  3  2  0
  3  4  1  0
  4  5  1  0
  5  6  1  0
  6  7  2  0
  6  8  1  0
  8  9  2  0
  9 10  1  0
 10 11  2  0
 11 12  1  0
 12 13  1  0
 13 14  2  0
 14 15  1  0
 15 16  2  0
 16 17  1  0
 17 18  2  0
  4 19  2  0
 19 20  1  0
 20 21  2  0
 21 22  1  0
 21  2  1  0
 18  5  1  0
 18 10  1  0
 17 13  1  0
M  END
$$$$
