
     RDKit          3D

 10 10  0  0  0  0  0  0  0  0999 V2000
  -15.8420   13.5784  -26.7722 O   0  0  0  0  0  0  0  0  0  0  0  0
  -15.6227   13.4565  -27.9916 C   0  0  0  0  0  0  0  0  0  0  0  0
  -14.5264   12.6111  -28.4860 C   0  0  0  0  0  0  0  0  0  0  0  0
  -13.6406   11.9310  -27.1048 Cl  0  0  0  0  0  0  0  0  0  0  0  0
  -16.4579   14.1569  -28.9452 C   0  0  0  0  0  0  0  0  0  0  0  0
  -17.0682   15.3699  -28.6145 C   0  0  0  0  0  0  0  0  0  0  0  0
  -17.8619   16.0647  -29.4942 C   0  0  0  0  0  0  0  0  0  0  0  0
  -18.0464   15.5142  -30.7532 C   0  0  0  0  0  0  0  0  0  0  0  0
  -17.4497   14.3315  -31.0755 C   0  0  0  0  0  0  0  0  0  0  0  0
  -16.6531   13.6344  -30.1935 C   0  0  0  0  0  0  0  0  0  0  0  0
  1  2  2  0
  2  3  1  0
  3  4  1  0
  2  5  1  0
  5  6  2  0
  6  7  1  0
  7  8  2  0
  8  9  1  0
  9 10  2  0
 10  5  1  0
M  END
$$$$
