
     RDKit          3D

 25 28  0  0  0  0  0  0  0  0999 V2000
  -21.6468   36.6878  -23.7432 C   0  0  0  0  0  0  0  0  0  0  0  0
  -21.4165   36.8948  -22.2607 C   0  0  0  0  0  0  0  0  0  0  0  0
  -22.6875   37.4653  -21.6356 C   0  0  0  0  0  0  0  0  0  0  0  0
  -21.1682   35.5526  -21.6517 C   0  0  0  0  0  0  0  0  0  0  0  0
  -20.3694   37.8637  -22.0158 N   0  0  0  0  0  0  0  0  0  0  0  0
  -19.5404   38.4225  -22.8784 N   0  0  0  0  0  0  0  0  0  0  0  0
  -18.7012   39.2605  -22.2400 C   0  0  0  0  0  0  0  0  0  0  0  0
  -17.5984   40.0499  -22.8360 C   0  0  0  0  0  0  0  0  0  0  0  0
  -17.9925   41.4621  -23.0160 C   0  0  0  0  0  0  0  0  0  0  0  0
  -17.9737   42.3910  -21.9947 C   0  0  0  0  0  0  0  0  0  0  0  0
  -18.3420   43.6934  -22.2599 C   0  0  0  0  0  0  0  0  0  0  0  0
  -18.7361   44.1240  -23.5125 C   0  0  0  0  0  0  0  0  0  0  0  0
  -18.7450   43.1681  -24.5182 C   0  0  0  0  0  0  0  0  0  0  0  0
  -19.1307   43.5441  -25.7813 C   0  0  0  0  0  0  0  0  0  0  0  0
  -19.1627   42.6422  -26.8195 C   0  0  0  0  0  0  0  0  0  0  0  0
  -18.8009   41.3159  -26.6073 C   0  0  0  0  0  0  0  0  0  0  0  0
  -18.4198   40.9695  -25.3326 C   0  0  0  0  0  0  0  0  0  0  0  0
  -18.3807   41.8654  -24.2708 C   0  0  0  0  0  0  0  0  0  0  0  0
  -19.0526   39.1987  -20.9180 C   0  0  0  0  0  0  0  0  0  0  0  0
  -18.5965   39.8036  -19.7531 C   0  0  0  0  0  0  0  0  0  0  0  0
  -17.5219   40.7162  -19.9109 N   0  0  0  0  0  0  0  0  0  0  0  0
  -19.1643   39.5258  -18.5777 N   0  0  0  0  0  0  0  0  0  0  0  0
  -20.1836   38.6688  -18.4539 C   0  0  0  0  0  0  0  0  0  0  0  0
  -20.6529   38.0647  -19.5569 N   0  0  0  0  0  0  0  0  0  0  0  0
  -20.1072   38.3184  -20.7510 C   0  0  0  0  0  0  0  0  0  0  0  0
  1  2  1  0
  2  3  1  0
  2  4  1  0
  2  5  1  0
  5  6  1  0
  6  7  2  0
  7  8  1  0
  8  9  1  0
  9 10  2  0
 10 11  1  0
 11 12  2  0
 12 13  1  0
 13 14  2  0
 14 15  1  0
 15 16  2  0
 16 17  1  0
 17 18  2  0
  7 19  1  0
 19 20  2  0
 20 21  1  0
 20 22  1  0
 22 23  2  0
 23 24  1  0
 24 25  2  0
 25  5  1  0
 18  9  1  0
 25 19  1  0
 18 13  1  0
M  END
$$$$
