
     RDKit          3D

 22 24  0  0  0  0  0  0  0  0999 V2000
  -12.5424    2.3778  -30.4189 C   0  0  0  0  0  0  0  0  0  0  0  0
  -13.2879    1.4239  -31.2236 N   0  0  0  0  0  0  0  0  0  0  0  0
  -14.1916    2.0603  -32.1186 C   0  0  0  0  0  0  0  0  0  0  0  0
  -14.9921    1.1272  -33.0015 C   0  0  0  0  0  0  0  0  0  0  0  0
  -15.8559    0.1819  -32.2429 C   0  0  0  0  0  0  0  0  0  0  0  0
  -16.6945   -0.7279  -33.0094 C   0  0  0  0  0  0  0  0  0  0  0  0
  -15.9463   -1.6013  -33.9906 C   0  0  0  0  0  0  0  0  0  0  0  0
  -16.8476   -2.4845  -34.7788 C   0  0  0  0  0  0  0  0  0  0  0  0
  -18.2843   -2.3967  -34.3069 C   0  0  0  0  0  0  0  0  0  0  0  0
  -18.6570   -0.9573  -34.4078 C   0  0  0  0  0  0  0  0  0  0  0  0
  -19.7234   -0.4883  -35.0801 C   0  0  0  0  0  0  0  0  0  0  0  0
  -20.0065    0.8716  -35.0602 C   0  0  0  0  0  0  0  0  0  0  0  0
  -19.1919    1.7271  -34.3509 C   0  0  0  0  0  0  0  0  0  0  0  0
  -18.0982    1.2571  -33.6599 C   0  0  0  0  0  0  0  0  0  0  0  0
  -17.8253   -0.0884  -33.6878 C   0  0  0  0  0  0  0  0  0  0  0  0
  -18.2032   -2.6370  -32.8157 C   0  0  0  0  0  0  0  0  0  0  0  0
  -18.8837   -3.6227  -32.1805 C   0  0  0  0  0  0  0  0  0  0  0  0
  -18.7238   -3.7299  -30.8036 C   0  0  0  0  0  0  0  0  0  0  0  0
  -17.8940   -2.8544  -30.1071 C   0  0  0  0  0  0  0  0  0  0  0  0
  -17.2001   -1.8430  -30.7833 C   0  0  0  0  0  0  0  0  0  0  0  0
  -17.3811   -1.7707  -32.1223 C   0  0  0  0  0  0  0  0  0  0  0  0
  -16.2091    0.0354  -32.5465 Cl  0  0  0  0  0  0  0  0  0  0  0  0
  1  2  1  0
  2  3  1  0
  3  4  1  0
  4  5  1  0
  5  6  1  0
  6  7  1  0
  7  8  1  0
  8  9  1  0
  9 10  1  0
 10 11  2  0
 11 12  1  0
 12 13  2  0
 13 14  1  0
 14 15  2  0
  9 16  1  0
 16 17  2  0
 17 18  1  0
 18 19  2  0
 19 20  1  0
 20 21  2  0
 15  6  1  0
 21 16  1  0
 21  6  1  0
 15 10  1  0
M  END
$$$$
