
     RDKit          3D

 18 20  0  0  0  0  0  0  0  0999 V2000
  -19.1684   38.3225  -22.6440 C   0  0  0  0  0  0  0  0  0  0  0  0
  -18.4685   38.8843  -21.4538 C   0  0  0  0  0  0  0  0  0  0  0  0
  -18.6721   40.3464  -21.2991 C   0  0  0  0  0  0  0  0  0  0  0  0
  -18.9194   41.1006  -22.2778 O   0  0  0  0  0  0  0  0  0  0  0  0
  -18.6001   40.9918  -20.0266 N   0  0  0  0  0  0  0  0  0  0  0  0
  -18.7944   42.4154  -19.8739 C   0  0  0  0  0  0  0  0  0  0  0  0
  -17.4577   43.0830  -20.1633 C   0  0  2  0  0  0  0  0  0  0  0  0
  -16.3563   42.0398  -20.4627 C   0  0  0  0  0  0  0  0  0  0  0  0
  -16.3445   42.9886  -19.2296 C   0  0  1  0  0  0  0  0  0  0  0  0
  -15.2396   43.9739  -19.2656 C   0  0  0  0  0  0  0  0  0  0  0  0
  -15.1082   44.7525  -20.4246 C   0  0  0  0  0  0  0  0  0  0  0  0
  -14.1312   45.7051  -20.5692 C   0  0  0  0  0  0  0  0  0  0  0  0
  -13.2584   45.8844  -19.5218 C   0  0  0  0  0  0  0  0  0  0  0  0
  -13.3598   45.1361  -18.3697 C   0  0  0  0  0  0  0  0  0  0  0  0
  -14.3449   44.1861  -18.2427 C   0  0  0  0  0  0  0  0  0  0  0  0
  -14.1683   43.5701  -16.9209 C   0  0  0  0  0  0  0  0  0  0  0  0
  -12.6776   43.8264  -16.6633 C   0  0  0  0  0  0  0  0  0  0  0  0
  -12.5828   45.1552  -17.1916 O   0  0  0  0  0  0  0  0  0  0  0  0
  1  2  1  0
  2  3  1  0
  3  4  2  0
  3  5  1  0
  5  6  1  0
  7  6  1  1
  7  8  1  0
  8  9  1  0
  9 10  1  6
 10 11  2  0
 11 12  1  0
 12 13  2  0
 13 14  1  0
 14 15  2  0
 15 16  1  0
 16 17  1  0
 17 18  1  0
  9  7  1  0
 15 10  1  0
 18 14  1  0
M  END
$$$$
