
     RDKit          3D

 23 24  0  0  0  0  0  0  0  0999 V2000
  -17.8230   39.2161  -20.8227 O   0  0  0  0  0  0  0  0  0  0  0  0
  -17.8887   39.3810  -22.0644 C   0  0  0  0  0  0  0  0  0  0  0  0
  -16.8028   38.9895  -22.8307 O   0  0  0  0  0  0  0  0  0  0  0  0
  -19.1100   39.9801  -22.6540 C   0  0  0  0  0  0  0  0  0  0  0  0
  -18.7913   41.1154  -23.6024 C   0  0  0  0  0  0  0  0  0  0  0  0
  -18.7551   42.3821  -22.8612 C   0  0  0  0  0  0  0  0  0  0  0  0
  -17.5426   42.8992  -22.4567 C   0  0  0  0  0  0  0  0  0  0  0  0
  -17.4610   44.0830  -21.7587 C   0  0  0  0  0  0  0  0  0  0  0  0
  -18.6238   44.7724  -21.4547 C   0  0  0  0  0  0  0  0  0  0  0  0
  -19.8503   44.2870  -21.8419 C   0  0  0  0  0  0  0  0  0  0  0  0
  -19.8989   43.0841  -22.5482 C   0  0  0  0  0  0  0  0  0  0  0  0
  -19.8341   38.8581  -23.3915 C   0  0  0  0  0  0  0  0  0  0  0  0
  -20.4018   37.8984  -22.4896 N   0  0  0  0  0  0  0  0  0  0  0  0
  -21.5898   38.1477  -21.9098 O   0  0  0  0  0  0  0  0  0  0  0  0
  -19.7361   36.6969  -22.1996 C   0  0  0  0  0  0  0  0  0  0  0  0
  -18.6033   36.4577  -22.6802 O   0  0  0  0  0  0  0  0  0  0  0  0
  -20.3374   35.6806  -21.3296 C   0  0  0  0  0  0  0  0  0  0  0  0
  -19.4825   34.4665  -21.2042 C   0  0  0  0  0  0  0  0  0  0  0  0
  -18.4275   34.3771  -20.3210 C   0  0  0  0  0  0  0  0  0  0  0  0
  -17.6691   33.2282  -20.2465 C   0  0  0  0  0  0  0  0  0  0  0  0
  -17.9595   32.1467  -21.0610 C   0  0  0  0  0  0  0  0  0  0  0  0
  -19.0099   32.2056  -21.9559 C   0  0  0  0  0  0  0  0  0  0  0  0
  -19.7459   33.3738  -22.0007 C   0  0  0  0  0  0  0  0  0  0  0  0
  1  2  2  0
  2  3  1  0
  2  4  1  0
  4  5  1  0
  5  6  1  0
  6  7  2  0
  7  8  1  0
  8  9  2  0
  9 10  1  0
 10 11  2  0
  4 12  1  0
 12 13  1  0
 13 14  1  0
 13 15  1  0
 15 16  2  0
 15 17  1  0
 17 18  1  0
 18 19  2  0
 19 20  1  0
 20 21  2  0
 21 22  1  0
 22 23  2  0
 11  6  1  0
 23 18  1  0
M  END
$$$$
