
     RDKit          3D

 55 62  0  0  0  0  0  0  0  0999 V2000
  -15.6515   36.5604  -21.0567 C   0  0  0  0  0  0  0  0  0  0  0  0
  -16.8237   37.4213  -20.6220 C   0  0  1  0  0  0  0  0  0  0  0  0
  -16.6528   38.6734  -21.1838 O   0  0  0  0  0  0  0  0  0  0  0  0
  -17.8556   39.4155  -21.2211 C   0  0  1  0  0  0  0  0  0  0  0  0
  -17.4932   40.7398  -21.3559 O   0  0  0  0  0  0  0  0  0  0  0  0
  -18.4213   41.6541  -20.9484 C   0  0  1  0  0  0  0  0  0  0  0  0
  -17.7171   42.6407  -20.0226 C   0  0  1  0  0  0  0  0  0  0  0  0
  -17.0099   41.9587  -19.0482 O   0  0  0  0  0  0  0  0  0  0  0  0
  -16.7271   43.4096  -20.8693 C   0  0  0  0  0  0  0  0  0  0  0  0
  -17.4112   44.0325  -22.0587 C   0  0  2  0  0  0  0  0  0  0  0  0
  -17.1819   45.3914  -22.0014 O   0  0  0  0  0  0  0  0  0  0  0  0
  -18.2998   46.1345  -21.6588 C   0  0  1  0  0  0  0  0  0  0  0  0
  -18.1811   46.8115  -20.3333 C   0  0  1  0  0  0  0  0  0  0  0  0
  -17.3182   47.9230  -20.3822 O   0  0  0  0  0  0  0  0  0  0  0  0
  -19.5630   47.4245  -20.0610 C   0  0  0  0  0  0  0  0  0  0  0  0
  -19.7117   48.5263  -21.0902 C   0  0  2  0  0  0  0  0  0  0  0  0
  -21.0469   48.7496  -21.2969 O   0  0  0  0  0  0  0  0  0  0  0  0
  -21.8731   48.3963  -20.2303 C   0  0  1  0  0  0  0  0  0  0  0  0
  -23.0302   49.3087  -20.1919 C   0  0  0  0  0  0  0  0  0  0  0  0
  -24.4001   48.7914  -20.2107 C   0  0  0  0  0  0  0  0  0  0  0  0
  -24.6312   47.3143  -20.2925 C   0  0  2  0  0  0  0  0  0  0  0  0
  -24.6174   46.8875  -21.7428 C   0  0  0  0  0  0  0  0  0  0  0  0
  -25.9456   46.9721  -19.6225 C   0  0  1  0  0  0  0  0  0  0  0  0
  -26.6940   45.9373  -20.3851 C   0  0  0  0  0  0  0  0  0  0  0  0
  -27.5949   45.0591  -19.6209 C   0  0  1  0  0  0  0  0  0  0  0  0
  -27.0144   43.7931  -19.5358 O   0  0  0  0  0  0  0  0  0  0  0  0
  -28.0308   45.4899  -18.2593 C   0  0  2  0  0  0  0  0  0  0  0  0
  -28.2782   44.2856  -17.3781 C   0  0  0  0  0  0  0  0  0  0  0  0
  -29.3198   46.2628  -18.3292 C   0  0  1  0  0  0  0  0  0  0  0  0
  -30.2884   45.9490  -17.2548 C   0  0  0  0  0  0  0  0  0  0  0  0
  -31.6058   46.1980  -17.3511 C   0  0  0  0  0  0  0  0  0  0  0  0
  -32.2999   45.7900  -16.1534 C   0  0  0  0  0  0  0  0  0  0  0  0
  -33.5304   45.8582  -15.8644 O   0  0  0  0  0  0  0  0  0  0  0  0
  -31.3538   45.2701  -15.2920 O   0  0  0  0  0  0  0  0  0  0  0  0
  -30.1116   45.3483  -15.9249 C   0  0  0  0  0  0  0  0  0  0  0  0
  -28.9506   47.7220  -18.3440 C   0  0  0  0  0  0  0  0  0  0  0  0
  -27.7067   47.7775  -17.5219 C   0  0  0  0  0  0  0  0  0  0  0  0
  -27.0767   46.4081  -17.5611 C   0  0  1  0  0  0  0  0  0  0  0  0
  -26.8535   46.0127  -16.2437 O   0  0  0  0  0  0  0  0  0  0  0  0
  -25.7284   46.4150  -18.2292 C   0  0  2  0  0  0  0  0  0  0  0  0
  -24.6810   47.1378  -17.4686 C   0  0  0  0  0  0  0  0  0  0  0  0
  -23.3431   46.9737  -18.1654 C   0  0  0  0  0  0  0  0  0  0  0  0
  -23.4923   46.6092  -19.6099 C   0  0  2  0  0  0  0  0  0  0  0  0
  -22.2053   46.9320  -20.3451 C   0  0  0  0  0  0  0  0  0  0  0  0
  -18.9366   48.3817  -22.2041 O   0  0  0  0  0  0  0  0  0  0  0  0
  -18.7370   47.1219  -22.6853 C   0  0  2  0  0  0  0  0  0  0  0  0
  -19.9540   46.6120  -23.4702 C   0  0  0  0  0  0  0  0  0  0  0  0
  -18.7742   43.7371  -22.0972 O   0  0  0  0  0  0  0  0  0  0  0  0
  -18.9985   42.3610  -22.1514 C   0  0  2  0  0  0  0  0  0  0  0  0
  -20.4401   42.0291  -22.3935 C   0  0  0  0  0  0  0  0  0  0  0  0
  -18.6798   38.8792  -22.3488 C   0  0  0  0  0  0  0  0  0  0  0  0
  -18.3985   37.3792  -22.4674 C   0  0  2  0  0  0  0  0  0  0  0  0
  -19.5058   36.7046  -22.9839 O   0  0  0  0  0  0  0  0  0  0  0  0
  -18.0948   36.7892  -21.1096 C   0  0  2  0  0  0  0  0  0  0  0  0
  -19.1418   36.9700  -20.2195 O   0  0  0  0  0  0  0  0  0  0  0  0
  2  1  1  6
  2  3  1  0
  3  4  1  0
  4  5  1  6
  6  5  1  6
  6  7  1  0
  7  8  1  1
  7  9  1  0
  9 10  1  0
 10 11  1  1
 12 11  1  6
 12 13  1  0
 13 14  1  6
 13 15  1  0
 15 16  1  0
 16 17  1  6
 18 17  1  6
 18 19  1  0
 19 20  1  0
 20 21  1  0
 21 22  1  6
 21 23  1  0
 23 24  1  6
 24 25  1  0
 25 26  1  1
 25 27  1  0
 27 28  1  1
 27 29  1  0
 29 30  1  1
 30 31  2  0
 31 32  1  0
 32 33  2  0
 32 34  1  0
 34 35  1  0
 29 36  1  0
 36 37  1  0
 37 38  1  0
 38 39  1  1
 38 40  1  0
 40 41  1  1
 41 42  1  0
 43 42  1  1
 43 44  1  0
 16 45  1  0
 45 46  1  0
 46 47  1  1
 10 48  1  0
 48 49  1  0
 49 50  1  1
  4 51  1  0
 51 52  1  0
 52 53  1  1
 52 54  1  0
 54 55  1  1
 54  2  1  0
 49  6  1  0
 46 12  1  0
 44 18  1  0
 43 21  1  0
 40 23  1  0
 38 27  1  0
 35 30  1  0
M  END
$$$$
