
     RDKit          3D

 12 11  0  0  0  0  0  0  0  0999 V2000
  -15.2844    0.7103  -32.1711 Br  0  0  0  0  0  0  0  0  0  0  0  0
  -18.6503    0.0199  -32.8429 C   0  0  0  0  0  0  0  0  0  0  0  0
  -17.5037    0.7116  -32.3398 O   0  0  0  0  0  0  0  0  0  0  0  0
  -16.2366    0.1149  -32.3492 C   0  0  0  0  0  0  0  0  0  0  0  0
  -16.1928   -1.0496  -32.8247 O   0  0  0  0  0  0  0  0  0  0  0  0
  -15.0579    0.7960  -31.8445 C   0  0  0  0  0  0  0  0  0  0  0  0
  -15.0918    2.0035  -31.3493 C   0  0  0  0  0  0  0  0  0  0  0  0
  -13.8512    2.6245  -30.8571 C   0  0  0  0  0  0  0  0  0  0  0  0
  -12.5790    2.0485  -31.3948 C   0  0  0  0  0  0  0  0  0  0  0  0
  -12.8335    1.1262  -32.4515 N   0  0  0  0  0  0  0  0  0  0  0  0
  -11.6720    0.4956  -32.9876 C   0  0  0  0  0  0  0  0  0  0  0  0
  -13.7462    0.1110  -31.8894 C   0  0  0  0  0  0  0  0  0  0  0  0
  2  3  1  0
  3  4  1  0
  4  5  2  0
  4  6  1  0
  6  7  2  0
  7  8  1  0
  8  9  1  0
  9 10  1  0
 10 11  1  0
 10 12  1  0
 12  6  1  0
M  END
$$$$
