
     RDKit          3D

 35 37  0  0  0  0  0  0  0  0999 V2000
  -20.0890   47.2785  -21.7598 C   0  0  0  0  0  0  0  0  0  0  0  0
  -19.6463   46.0278  -21.1575 N   0  0  0  0  0  0  0  0  0  0  0  0
  -19.4498   44.8768  -21.9517 C   0  0  0  0  0  0  0  0  0  0  0  0
  -19.6229   44.9877  -23.1942 O   0  0  0  0  0  0  0  0  0  0  0  0
  -19.0584   43.5810  -21.3912 C   0  0  0  0  0  0  0  0  0  0  0  0
  -18.7863   42.4896  -22.1665 C   0  0  0  0  0  0  0  0  0  0  0  0
  -18.4207   41.2852  -21.6268 C   0  0  0  0  0  0  0  0  0  0  0  0
  -18.3056   41.1074  -20.2403 C   0  0  0  0  0  0  0  0  0  0  0  0
  -17.9306   39.8585  -19.7428 N   0  0  0  0  0  0  0  0  0  0  0  0
  -18.1320   38.5852  -20.3270 C   0  0  0  0  0  0  0  0  0  0  0  0
  -17.7930   37.4214  -19.7621 N   0  0  0  0  0  0  0  0  0  0  0  0
  -17.9920   36.2293  -20.3359 C   0  0  0  0  0  0  0  0  0  0  0  0
  -18.5763   36.1332  -21.5809 C   0  0  0  0  0  0  0  0  0  0  0  0
  -18.8032   34.8127  -22.2270 C   0  0  0  0  0  0  0  0  0  0  0  0
  -18.3149   33.7790  -21.4386 F   0  0  0  0  0  0  0  0  0  0  0  0
  -20.1771   34.6071  -22.3108 F   0  0  0  0  0  0  0  0  0  0  0  0
  -18.3174   34.7705  -23.5139 F   0  0  0  0  0  0  0  0  0  0  0  0
  -18.9339   37.3173  -22.1825 C   0  0  0  0  0  0  0  0  0  0  0  0
  -19.5372   37.3406  -23.4643 N   0  0  0  0  0  0  0  0  0  0  0  0
  -19.8171   38.5286  -24.2047 C   0  0  0  0  0  0  0  0  0  0  0  0
  -21.2052   38.9780  -23.9569 C   0  0  0  0  0  0  0  0  0  0  0  0
  -21.8185   38.7637  -22.7637 N   0  0  0  0  0  0  0  0  0  0  0  0
  -23.0690   39.1534  -22.4969 C   0  0  0  0  0  0  0  0  0  0  0  0
  -23.8021   39.8086  -23.4582 C   0  0  0  0  0  0  0  0  0  0  0  0
  -23.2279   40.0339  -24.6397 N   0  0  0  0  0  0  0  0  0  0  0  0
  -21.9495   39.6334  -24.9071 C   0  0  0  0  0  0  0  0  0  0  0  0
  -21.4502   39.9319  -26.1853 N   0  0  0  0  0  0  0  0  0  0  0  0
  -20.3848   40.8840  -26.3600 C   0  0  0  0  0  0  0  0  0  0  0  0
  -22.1239   39.1478  -27.5565 S   0  0  0  0  0  6  0  0  0  0  0  0
  -23.6449   39.8978  -28.0242 C   0  0  0  0  0  0  0  0  0  0  0  0
  -22.3948   37.6851  -27.2261 O   0  0  0  0  0  0  0  0  0  0  0  0
  -21.1192   39.1809  -28.6956 O   0  0  0  0  0  0  0  0  0  0  0  0
  -18.7095   38.4742  -21.5595 N   0  0  0  0  0  0  0  0  0  0  0  0
  -18.5821   42.2133  -19.4674 C   0  0  0  0  0  0  0  0  0  0  0  0
  -18.9484   43.4165  -20.0304 C   0  0  0  0  0  0  0  0  0  0  0  0
  1  2  1  0
  2  3  1  0
  3  4  2  0
  3  5  1  0
  5  6  2  0
  6  7  1  0
  7  8  2  0
  8  9  1  0
  9 10  1  0
 10 11  2  0
 11 12  1  0
 12 13  2  0
 13 14  1  0
 14 15  1  0
 14 16  1  0
 14 17  1  0
 13 18  1  0
 18 19  1  0
 19 20  1  0
 20 21  1  0
 21 22  2  0
 22 23  1  0
 23 24  2  0
 24 25  1  0
 25 26  2  0
 26 27  1  0
 27 28  1  0
 27 29  1  0
 29 30  1  0
 29 31  2  0
 29 32  2  0
 18 33  2  0
  8 34  1  0
 34 35  2  0
 35  5  1  0
 33 10  1  0
 26 21  1  0
M  END
$$$$
