
     RDKit          3D

 21 22  0  0  0  0  0  0  0  0999 V2000
  -22.1115   37.4282  -20.9922 O   0  0  0  0  0  0  0  0  0  0  0  0
  -21.2461   38.0844  -21.5916 C   0  0  0  0  0  0  0  0  0  0  0  0
  -20.1680   37.4208  -22.1453 O   0  0  0  0  0  0  0  0  0  0  0  0
  -21.3542   39.5588  -21.7194 C   0  0  0  0  0  0  0  0  0  0  0  0
  -20.1015   40.1925  -21.2685 C   0  0  0  0  0  0  0  0  0  0  0  0
  -19.1762   40.6103  -22.2033 C   0  0  0  0  0  0  0  0  0  0  0  0
  -17.9965   41.2060  -21.8076 C   0  0  0  0  0  0  0  0  0  0  0  0
  -16.6246   41.8221  -23.2784 I   0  0  0  0  0  0  0  0  0  0  0  0
  -17.7112   41.3995  -20.4646 C   0  0  0  0  0  0  0  0  0  0  0  0
  -16.5343   41.9911  -20.1347 O   0  0  0  0  0  0  0  0  0  0  0  0
  -16.3091   43.2724  -19.7633 C   0  0  0  0  0  0  0  0  0  0  0  0
  -17.3203   44.1959  -19.7706 C   0  0  0  0  0  0  0  0  0  0  0  0
  -17.1258   45.5136  -19.3972 C   0  0  0  0  0  0  0  0  0  0  0  0
  -15.8449   45.8970  -19.0017 C   0  0  0  0  0  0  0  0  0  0  0  0
  -15.6413   47.2252  -18.6237 O   0  0  0  0  0  0  0  0  0  0  0  0
  -14.8210   45.0044  -18.9838 C   0  0  0  0  0  0  0  0  0  0  0  0
  -12.9097   45.6441  -18.3769 I   0  0  0  0  0  0  0  0  0  0  0  0
  -15.0634   43.6802  -19.3700 C   0  0  0  0  0  0  0  0  0  0  0  0
  -18.6251   40.9868  -19.5418 C   0  0  0  0  0  0  0  0  0  0  0  0
  -18.1451   41.3036  -17.5040 I   0  0  0  0  0  0  0  0  0  0  0  0
  -19.7902   40.3984  -19.9360 C   0  0  0  0  0  0  0  0  0  0  0  0
  1  2  2  0
  2  3  1  0
  2  4  1  0
  4  5  1  0
  5  6  2  0
  6  7  1  0
  7  8  1  0
  7  9  2  0
  9 10  1  0
 10 11  1  0
 11 12  2  0
 12 13  1  0
 13 14  2  0
 14 15  1  0
 14 16  1  0
 16 17  1  0
 16 18  2  0
  9 19  1  0
 19 20  1  0
 19 21  2  0
 21  5  1  0
 18 11  1  0
M  END
$$$$
