
     RDKit          3D

 17 19  0  0  0  0  0  0  0  0999 V2000
  -23.6149   19.1994  -41.3022 C   0  0  0  0  0  0  0  0  0  0  0  0
  -22.7520   20.4142  -41.4077 C   0  0  0  0  0  0  0  0  0  0  0  0
  -21.8839   20.4496  -42.3169 O   0  0  0  0  0  0  0  0  0  0  0  0
  -22.8971   21.5273  -40.4985 C   0  0  0  0  0  0  0  0  0  0  0  0
  -22.0076   22.5794  -40.5443 C   0  0  0  0  0  0  0  0  0  0  0  0
  -22.0966   23.6599  -39.7074 C   0  0  0  0  0  0  0  0  0  0  0  0
  -23.0916   23.7331  -38.7785 C   0  0  0  0  0  0  0  0  0  0  0  0
  -24.0073   22.7134  -38.6868 C   0  0  0  0  0  0  0  0  0  0  0  0
  -23.8913   21.6185  -39.5577 C   0  0  0  0  0  0  0  0  0  0  0  0
  -25.0651   22.7196  -37.7496 N   0  0  0  0  0  0  0  0  0  0  0  0
  -25.3523   23.6981  -36.8094 C   0  0  0  0  0  0  0  0  0  0  0  0
  -26.4487   23.5514  -35.9456 C   0  0  0  0  0  0  0  0  0  0  0  0
  -26.7916   24.4731  -34.9961 C   0  0  0  0  0  0  0  0  0  0  0  0
  -26.0244   25.6251  -34.8641 C   0  0  0  0  0  0  0  0  0  0  0  0
  -24.9349   25.7838  -35.7134 C   0  0  0  0  0  0  0  0  0  0  0  0
  -24.6264   24.8497  -36.6413 C   0  0  0  0  0  0  0  0  0  0  0  0
  -23.2146   25.1450  -37.6790 S   0  0  0  0  0  0  0  0  0  0  0  0
  1  2  1  0
  2  3  2  0
  2  4  1  0
  4  5  2  0
  5  6  1  0
  6  7  2  0
  7  8  1  0
  8  9  2  0
  8 10  1  0
 10 11  1  0
 11 12  2  0
 12 13  1  0
 13 14  2  0
 14 15  1  0
 15 16  2  0
 16 17  1  0
  9  4  1  0
 16 11  1  0
 17  7  1  0
M  END
$$$$
