
     RDKit          3D

 36 37  0  0  0  0  0  0  0  0999 V2000
  -21.0703   16.0861  -20.1950 C   0  0  0  0  0  0  0  0  0  0  0  0
  -22.3265   15.7892  -20.9746 C   0  0  0  0  0  0  0  0  0  0  0  0
  -23.1059   17.0245  -21.3027 C   0  0  0  0  0  0  0  0  0  0  0  0
  -24.2875   16.6719  -22.0488 N   0  0  0  0  0  0  0  0  0  0  0  0
  -24.5143   15.3539  -22.5449 C   0  0  0  0  0  0  0  0  0  0  0  0
  -23.4287   14.5008  -22.6520 C   0  0  0  0  0  0  0  0  0  0  0  0
  -23.6273   13.2312  -23.1304 C   0  0  0  0  0  0  0  0  0  0  0  0
  -24.8799   12.7890  -23.5060 C   0  0  0  0  0  0  0  0  0  0  0  0
  -25.9628   13.6484  -23.3975 C   0  0  0  0  0  0  0  0  0  0  0  0
  -25.7960   14.9226  -22.9220 C   0  0  0  0  0  0  0  0  0  0  0  0
  -27.1257   16.0403  -22.8536 S   0  0  0  0  0  6  0  0  0  0  0  0
  -27.1157   16.8268  -21.5581 O   0  0  0  0  0  0  0  0  0  0  0  0
  -26.8834   17.0212  -24.0048 O   0  0  0  0  0  0  0  0  0  0  0  0
  -28.6230   15.2481  -23.0734 N   0  0  0  0  0  0  0  0  0  0  0  0
  -28.8944   14.3119  -22.0409 C   0  0  1  0  0  0  0  0  0  0  0  0
  -29.9893   15.0218  -21.1936 C   0  0  0  0  0  0  0  0  0  0  0  0
  -30.4024   14.1500  -20.0723 C   0  0  0  0  0  0  0  0  0  0  0  0
  -31.4413   14.8453  -19.1751 C   0  0  0  0  0  0  0  0  0  0  0  0
  -31.7913   13.9245  -18.1230 N   0  0  0  0  0  0  0  0  0  0  0  0
  -30.9126   13.5326  -17.0952 C   0  0  0  0  0  0  0  0  0  0  0  0
  -29.7389   14.0532  -17.0841 N   0  0  0  0  0  0  0  0  0  0  0  0
  -31.2616   12.6037  -16.0821 N   0  0  0  0  0  0  0  0  0  0  0  0
  -29.2589   12.9514  -22.3703 C   0  0  0  0  0  0  0  0  0  0  0  0
  -29.2600   12.1348  -21.3591 O   0  0  0  0  0  0  0  0  0  0  0  0
  -29.6138   12.3537  -23.5892 N   0  0  0  0  0  0  0  0  0  0  0  0
  -29.7059   13.0826  -24.8108 C   0  0  0  0  0  0  0  0  0  0  0  0
  -28.9746   12.3980  -25.9521 C   0  0  0  0  0  0  0  0  0  0  0  0
  -29.4768   10.9759  -26.0403 C   0  0  1  0  0  0  0  0  0  0  0  0
  -28.8157   10.2325  -27.1866 C   0  0  0  0  0  0  0  0  0  0  0  0
  -29.1761   10.2921  -24.7389 C   0  0  0  0  0  0  0  0  0  0  0  0
  -29.8823   10.9044  -23.5787 C   0  0  2  0  0  0  0  0  0  0  0  0
  -31.3334   10.6249  -23.5583 C   0  0  0  0  0  0  0  0  0  0  0  0
  -31.8097    9.4662  -23.5752 O   0  0  0  0  0  0  0  0  0  0  0  0
  -32.2764   11.6628  -23.5177 O   0  0  0  0  0  0  0  0  0  0  0  0
  -22.0761   15.0070  -22.2283 C   0  0  0  0  0  0  0  0  0  0  0  0
  -27.8754   13.8303  -21.9108 O   0  0  0  0  0  0  0  0  0  0  0  0
  1  2  1  0
  2  3  1  0
  3  4  1  0
  4  5  1  0
  5  6  2  0
  6  7  1  0
  7  8  2  0
  8  9  1  0
  9 10  2  0
 10 11  1  0
 11 12  2  0
 11 13  2  0
 11 14  1  0
 14 15  1  0
 15 16  1  6
 16 17  1  0
 17 18  1  0
 18 19  1  0
 19 20  1  0
 20 21  2  0
 20 22  1  0
 15 23  1  0
 23 24  2  0
 23 25  1  0
 25 26  1  0
 26 27  1  0
 27 28  1  0
 28 29  1  6
 28 30  1  0
 30 31  1  0
 31 32  1  6
 32 33  2  0
 32 34  1  0
  6 35  1  0
 35  2  1  0
 10  5  1  0
 31 25  1  0
M  END
$$$$
