
     RDKit          3D

 34 38  0  0  0  0  0  0  0  0999 V2000
  -16.3930   43.8611  -20.7755 C   0  0  0  0  0  0  0  0  0  0  0  0
  -15.9925   43.8082  -22.1303 O   0  0  0  0  0  0  0  0  0  0  0  0
  -16.7111   43.0231  -23.0207 C   0  0  0  0  0  0  0  0  0  0  0  0
  -16.8470   43.3936  -24.3504 C   0  0  0  0  0  0  0  0  0  0  0  0
  -17.5706   42.5830  -25.2033 C   0  0  0  0  0  0  0  0  0  0  0  0
  -18.1710   41.4106  -24.7925 C   0  0  0  0  0  0  0  0  0  0  0  0
  -18.0274   41.0524  -23.4616 C   0  0  0  0  0  0  0  0  0  0  0  0
  -18.6422   39.8436  -23.0286 N   0  0  0  0  0  0  0  0  0  0  0  0
  -19.9556   39.8404  -22.7428 C   0  0  0  0  0  0  0  0  0  0  0  0
  -20.9273   41.3184  -22.8955 S   0  0  0  0  0  0  0  0  0  0  0  0
  -22.2648   41.3743  -21.6580 C   0  0  0  0  0  0  0  0  0  0  0  0
  -21.6681   41.6923  -20.3751 C   0  0  0  0  0  0  0  0  0  0  0  0
  -21.4765   40.6967  -19.4382 C   0  0  0  0  0  0  0  0  0  0  0  0
  -20.9014   41.0745  -18.2365 C   0  0  0  0  0  0  0  0  0  0  0  0
  -20.6801   40.2341  -17.3021 O   0  0  0  0  0  0  0  0  0  0  0  0
  -20.5484   42.3180  -17.9829 O   0  0  0  0  0  0  0  0  0  0  0  0
  -20.7238   43.2866  -18.8686 C   0  0  0  0  0  0  0  0  0  0  0  0
  -20.3651   44.5951  -18.6334 C   0  0  0  0  0  0  0  0  0  0  0  0
  -20.5768   45.5699  -19.6102 C   0  0  0  0  0  0  0  0  0  0  0  0
  -20.1942   46.8869  -19.3224 O   0  0  0  0  0  0  0  0  0  0  0  0
  -21.1450   45.2657  -20.8300 C   0  0  0  0  0  0  0  0  0  0  0  0
  -21.3607   46.2258  -21.8086 O   0  0  0  0  0  0  0  0  0  0  0  0
  -21.5119   43.9368  -21.0751 C   0  0  0  0  0  0  0  0  0  0  0  0
  -21.2906   42.9981  -20.0929 C   0  0  0  0  0  0  0  0  0  0  0  0
  -20.5135   38.6888  -22.3374 N   0  0  0  0  0  0  0  0  0  0  0  0
  -19.8326   37.5387  -22.2009 C   0  0  0  0  0  0  0  0  0  0  0  0
  -20.4513   36.3692  -21.7777 C   0  0  0  0  0  0  0  0  0  0  0  0
  -19.7060   35.2247  -21.6565 C   0  0  0  0  0  0  0  0  0  0  0  0
  -18.3711   35.2074  -21.9417 C   0  0  0  0  0  0  0  0  0  0  0  0
  -17.7688   36.3642  -22.3582 C   0  0  0  0  0  0  0  0  0  0  0  0
  -18.4989   37.5391  -22.4903 C   0  0  0  0  0  0  0  0  0  0  0  0
  -17.9193   38.7138  -22.9063 C   0  0  0  0  0  0  0  0  0  0  0  0
  -16.6805   38.7224  -23.1773 O   0  0  0  0  0  0  0  0  0  0  0  0
  -17.3081   41.8486  -22.5925 C   0  0  0  0  0  0  0  0  0  0  0  0
  1  2  1  0
  2  3  1  0
  3  4  2  0
  4  5  1  0
  5  6  2  0
  6  7  1  0
  7  8  1  0
  8  9  1  0
  9 10  1  0
 10 11  1  0
 11 12  1  0
 12 13  2  0
 13 14  1  0
 14 15  2  0
 14 16  1  0
 16 17  1  0
 17 18  2  0
 18 19  1  0
 19 20  1  0
 19 21  2  0
 21 22  1  0
 21 23  1  0
 23 24  2  0
  9 25  2  0
 25 26  1  0
 26 27  2  0
 27 28  1  0
 28 29  2  0
 29 30  1  0
 30 31  2  0
 31 32  1  0
 32 33  2  0
  7 34  2  0
 34  3  1  0
 32  8  1  0
 24 12  1  0
 31 26  1  0
 24 17  1  0
M  END
$$$$
