
     RDKit          3D

 36 39  0  0  0  0  0  0  0  0999 V2000
  -19.1831   46.3916  -24.1893 C   0  0  0  0  0  0  0  0  0  0  0  0
  -18.8000   45.4514  -23.0945 C   0  0  0  0  0  0  0  0  0  0  0  0
  -19.4288   45.7084  -21.8761 O   0  0  0  0  0  0  0  0  0  0  0  0
  -20.2987   44.8887  -21.2422 C   0  0  0  0  0  0  0  0  0  0  0  0
  -21.1475   45.3604  -20.4597 O   0  0  0  0  0  0  0  0  0  0  0  0
  -20.2646   43.4103  -21.4620 C   0  0  0  0  0  0  0  0  0  0  0  0
  -20.9454   42.9066  -22.4727 C   0  0  0  0  0  0  0  0  0  0  0  0
  -21.7358   43.7645  -23.3867 C   0  0  0  0  0  0  0  0  0  0  0  0
  -20.8852   41.4908  -22.6446 N   0  0  0  0  0  0  0  0  0  0  0  0
  -20.2063   40.8141  -21.8478 C   0  0  0  0  0  0  0  0  0  0  0  0
  -19.9455   38.9718  -21.8245 S   0  0  0  0  0  0  0  0  0  0  0  0
  -18.9062   38.9976  -20.4144 C   0  0  0  0  0  0  0  0  0  0  0  0
  -18.3634   37.9195  -19.8732 C   0  0  0  0  0  0  0  0  0  0  0  0
  -18.5372   36.6587  -20.5788 C   0  0  0  0  0  0  0  0  0  0  0  0
  -17.5023   35.8982  -21.0608 C   0  0  0  0  0  0  0  0  0  0  0  0
  -17.7754   34.7189  -21.7154 C   0  0  0  0  0  0  0  0  0  0  0  0
  -19.0648   34.2480  -21.9185 C   0  0  0  0  0  0  0  0  0  0  0  0
  -19.2882   33.0480  -22.5874 O   0  0  0  0  0  0  0  0  0  0  0  0
  -20.2541   32.1759  -22.0481 C   0  0  0  0  0  0  0  0  0  0  0  0
  -19.6853   31.0303  -21.3504 C   0  0  0  0  0  0  0  0  0  0  0  0
  -20.4143   30.1399  -20.8614 O   0  0  0  0  0  0  0  0  0  0  0  0
  -18.3171   30.9068  -21.2157 O   0  0  0  0  0  0  0  0  0  0  0  0
  -20.0884   35.0330  -21.4233 C   0  0  0  0  0  0  0  0  0  0  0  0
  -19.8396   36.2240  -20.7609 C   0  0  0  0  0  0  0  0  0  0  0  0
  -18.8392   40.2884  -20.0930 C   0  0  0  0  0  0  0  0  0  0  0  0
  -18.1136   40.6173  -19.0530 O   0  0  0  0  0  0  0  0  0  0  0  0
  -19.4924   41.1770  -20.8175 N   0  0  0  0  0  0  0  0  0  0  0  0
  -19.4805   42.6353  -20.5424 C   0  0  0  0  0  0  0  0  0  0  0  0
  -18.0703   43.1383  -20.5212 C   0  0  0  0  0  0  0  0  0  0  0  0
  -17.5463   43.8890  -19.5092 C   0  0  0  0  0  0  0  0  0  0  0  0
  -16.2381   44.3102  -19.5573 C   0  0  0  0  0  0  0  0  0  0  0  0
  -15.4007   43.9994  -20.6168 C   0  0  0  0  0  0  0  0  0  0  0  0
  -13.7026   44.5758  -20.6267 S   0  0  0  0  0  0  0  0  0  0  0  0
  -12.7123   43.3424  -19.7380 C   0  0  0  0  0  0  0  0  0  0  0  0
  -15.9317   43.2402  -21.6402 C   0  0  0  0  0  0  0  0  0  0  0  0
  -17.2422   42.8232  -21.5830 C   0  0  0  0  0  0  0  0  0  0  0  0
  1  2  1  0
  2  3  1  0
  3  4  1  0
  4  5  2  0
  4  6  1  0
  6  7  2  0
  7  8  1  0
  7  9  1  0
  9 10  2  0
 10 11  1  0
 11 12  1  0
 12 13  2  0
 13 14  1  0
 14 15  2  0
 15 16  1  0
 16 17  2  0
 17 18  1  0
 18 19  1  0
 19 20  1  0
 20 21  2  0
 20 22  1  0
 17 23  1  0
 23 24  2  0
 12 25  1  0
 25 26  2  0
 25 27  1  0
 27 28  1  0
 28 29  1  0
 29 30  2  0
 30 31  1  0
 31 32  2  0
 32 33  1  0
 33 34  1  0
 32 35  1  0
 35 36  2  0
 28  6  1  0
 36 29  1  0
 27 10  1  0
 24 14  1  0
M  END
$$$$
