
     RDKit          3D

 29 32  0  0  0  0  0  0  0  0999 V2000
  -13.7922   21.4946  -46.1593 C   0  0  0  0  0  0  0  0  0  0  0  0
  -13.6458   20.9185  -44.8913 O   0  0  0  0  0  0  0  0  0  0  0  0
  -14.6985   20.7826  -44.0158 C   0  0  0  0  0  0  0  0  0  0  0  0
  -15.5165   19.6593  -44.0948 C   0  0  0  0  0  0  0  0  0  0  0  0
  -16.5672   19.5309  -43.2147 C   0  0  0  0  0  0  0  0  0  0  0  0
  -16.8190   20.5070  -42.2521 C   0  0  0  0  0  0  0  0  0  0  0  0
  -17.8999   20.3751  -41.3415 N   0  0  0  0  0  0  0  0  0  0  0  0
  -18.8691   21.2575  -41.4178 C   0  0  0  0  0  0  0  0  0  0  0  0
  -18.7424   22.3064  -42.2178 O   0  0  0  0  0  0  0  0  0  0  0  0
  -19.6885   23.2082  -42.3213 C   0  0  0  0  0  0  0  0  0  0  0  0
  -19.5494   24.3127  -43.1687 C   0  0  0  0  0  0  0  0  0  0  0  0
  -20.5355   25.2682  -43.2889 C   0  0  0  0  0  0  0  0  0  0  0  0
  -20.3151   26.3307  -44.1523 O   0  0  0  0  0  0  0  0  0  0  0  0
  -21.7168   25.1396  -42.5445 C   0  0  0  0  0  0  0  0  0  0  0  0
  -21.8598   24.0660  -41.7170 C   0  0  0  0  0  0  0  0  0  0  0  0
  -20.8727   23.1138  -41.5996 C   0  0  0  0  0  0  0  0  0  0  0  0
  -20.9994   22.0146  -40.7641 C   0  0  0  0  0  0  0  0  0  0  0  0
  -20.0018   21.0669  -40.6574 C   0  0  0  0  0  0  0  0  0  0  0  0
  -20.0979   19.9024  -39.7863 C   0  0  0  0  0  0  0  0  0  0  0  0
  -19.9092   18.7228  -40.1918 O   0  0  0  0  0  0  0  0  0  0  0  0
  -20.4223   20.1485  -38.4213 N   0  0  0  0  0  0  0  0  0  0  0  0
  -21.2508   19.2732  -37.6636 C   0  0  0  0  0  0  0  0  0  0  0  0
  -21.3246   17.9066  -37.8800 C   0  0  0  0  0  0  0  0  0  0  0  0
  -22.1399   17.0965  -37.1291 C   0  0  0  0  0  0  0  0  0  0  0  0
  -22.9067   17.6498  -36.1349 C   0  0  0  0  0  0  0  0  0  0  0  0
  -22.8207   19.0230  -35.9313 C   0  0  0  0  0  0  0  0  0  0  0  0
  -22.0071   19.7923  -36.6887 N   0  0  0  0  0  0  0  0  0  0  0  0
  -16.0214   21.6256  -42.1584 C   0  0  0  0  0  0  0  0  0  0  0  0
  -14.9728   21.7309  -43.0537 C   0  0  0  0  0  0  0  0  0  0  0  0
  1  2  1  0
  2  3  1  0
  3  4  2  0
  4  5  1  0
  5  6  2  0
  6  7  1  0
  7  8  2  0
  8  9  1  0
  9 10  1  0
 10 11  2  0
 11 12  1  0
 12 13  1  0
 12 14  2  0
 14 15  1  0
 15 16  2  0
 16 17  1  0
 17 18  2  0
 18 19  1  0
 19 20  2  0
 19 21  1  0
 21 22  1  0
 22 23  2  0
 23 24  1  0
 24 25  2  0
 25 26  1  0
 26 27  2  0
  6 28  1  0
 28 29  2  0
 29  3  1  0
 18  8  1  0
 27 22  1  0
 16 10  1  0
M  END
$$$$
