
     RDKit          3D

 23 25  0  0  0  0  0  0  0  0999 V2000
  -24.5077   17.3886  -31.1637 O   0  0  0  0  0  0  0  0  0  0  0  0
  -23.4331   18.0294  -31.3138 C   0  0  0  0  0  0  0  0  0  0  0  0
  -22.1960   17.4810  -30.9360 C   0  0  0  0  0  0  0  0  0  0  0  0
  -22.2617   16.2179  -30.4029 O   0  0  0  0  0  0  0  0  0  0  0  0
  -21.0225   18.1345  -31.0802 C   0  0  0  0  0  0  0  0  0  0  0  0
  -19.7310   17.5932  -30.6991 C   0  0  0  0  0  0  0  0  0  0  0  0
  -18.5810   18.3095  -31.0857 C   0  0  0  0  0  0  0  0  0  0  0  0
  -17.3273   17.8703  -30.7681 C   0  0  0  0  0  0  0  0  0  0  0  0
  -16.1997   18.6187  -31.1750 O   0  0  0  0  0  0  0  0  0  0  0  0
  -17.1485   16.6970  -30.0500 C   0  0  0  0  0  0  0  0  0  0  0  0
  -15.8388   16.3206  -29.7682 O   0  0  0  0  0  0  0  0  0  0  0  0
  -18.2432   15.9667  -29.6527 C   0  0  0  0  0  0  0  0  0  0  0  0
  -18.0700   14.7967  -28.9368 O   0  0  0  0  0  0  0  0  0  0  0  0
  -19.5194   16.4391  -29.9913 C   0  0  0  0  0  0  0  0  0  0  0  0
  -21.0890   19.3623  -31.6135 O   0  0  0  0  0  0  0  0  0  0  0  0
  -22.2095   19.9165  -31.9803 C   0  0  0  0  0  0  0  0  0  0  0  0
  -22.2130   21.1828  -32.5228 C   0  0  0  0  0  0  0  0  0  0  0  0
  -23.3759   21.8005  -32.9216 C   0  0  0  0  0  0  0  0  0  0  0  0
  -23.3121   23.0937  -33.4679 O   0  0  0  0  0  0  0  0  0  0  0  0
  -24.5782   21.1346  -32.7756 C   0  0  0  0  0  0  0  0  0  0  0  0
  -24.6120   19.8650  -32.2360 C   0  0  0  0  0  0  0  0  0  0  0  0
  -25.8367   19.2213  -32.1019 O   0  0  0  0  0  0  0  0  0  0  0  0
  -23.4234   19.2849  -31.8502 C   0  0  0  0  0  0  0  0  0  0  0  0
  1  2  2  0
  2  3  1  0
  3  4  1  0
  3  5  2  0
  5  6  1  0
  6  7  2  0
  7  8  1  0
  8  9  1  0
  8 10  2  0
 10 11  1  0
 10 12  1  0
 12 13  1  0
 12 14  2  0
  5 15  1  0
 15 16  1  0
 16 17  2  0
 17 18  1  0
 18 19  1  0
 18 20  2  0
 20 21  1  0
 21 22  1  0
 21 23  2  0
 23  2  1  0
 14  6  1  0
 23 16  1  0
M  END
$$$$
