
     RDKit          3D

 22 23  0  0  0  0  0  0  0  0999 V2000
  -20.7777   38.3374  -24.1810 Cl  0  0  0  0  0  0  0  0  0  0  0  0
  -17.5266   39.4419  -19.0037 O   0  0  0  0  0  0  0  0  0  0  0  0
  -18.5025   39.3219  -19.7739 C   0  0  0  0  0  0  0  0  0  0  0  0
  -19.6661   38.7663  -19.4282 N   0  0  0  0  0  0  0  0  0  0  0  0
  -20.7017   38.6463  -20.2662 C   0  0  0  0  0  0  0  0  0  0  0  0
  -20.6193   39.1028  -21.5683 C   0  0  0  0  0  0  0  0  0  0  0  0
  -19.4405   39.6837  -21.9802 C   0  0  0  0  0  0  0  0  0  0  0  0
  -19.3514   40.1681  -23.2763 C   0  0  0  0  0  0  0  0  0  0  0  0
  -20.6209   39.9172  -24.4114 S   0  0  0  0  0  6  0  0  0  0  0  0
  -20.2916   40.8232  -25.6111 O   0  0  0  0  0  0  0  0  0  0  0  0
  -21.9453   40.4861  -23.9470 O   0  0  0  0  0  0  0  0  0  0  0  0
  -20.7490   38.3695  -25.0544 N   0  0  0  0  0  0  0  0  0  0  0  0
  -20.9963   37.2526  -24.2561 C   0  0  0  0  0  0  0  0  0  0  0  0
  -21.0236   36.0084  -25.1551 C   0  0  0  0  0  0  0  0  0  0  0  0
  -22.3506   35.9422  -25.8259 C   0  0  0  0  0  0  0  0  0  0  0  0
  -23.2576   36.9957  -25.4172 N   0  0  0  0  0  0  0  0  0  0  0  0
  -22.9375   38.2575  -26.0555 C   0  0  0  0  0  0  0  0  0  0  0  0
  -21.4546   38.3850  -26.3215 C   0  0  0  0  0  0  0  0  0  0  0  0
  -18.1608   40.7893  -23.6821 C   0  0  0  0  0  0  0  0  0  0  0  0
  -17.1293   40.8919  -22.7856 C   0  0  0  0  0  0  0  0  0  0  0  0
  -17.2205   40.4065  -21.5004 C   0  0  0  0  0  0  0  0  0  0  0  0
  -18.3712   39.7975  -21.0779 C   0  0  0  0  0  0  0  0  0  0  0  0
  2  3  2  0
  3  4  1  0
  4  5  1  0
  5  6  2  0
  6  7  1  0
  7  8  2  0
  8  9  1  0
  9 10  2  0
  9 11  2  0
  9 12  1  0
 12 13  1  0
 13 14  1  0
 14 15  1  0
 15 16  1  0
 16 17  1  0
 17 18  1  0
  8 19  1  0
 19 20  2  0
 20 21  1  0
 21 22  2  0
 22  3  1  0
 22  7  1  0
 18 12  1  0
M  END
$$$$
