
     RDKit          3D

 38 40  0  0  0  0  0  0  0  0999 V2000
  -22.5912   37.7525  -22.7262 C   0  0  0  0  0  0  0  0  0  0  0  0
  -21.7360   36.5074  -22.7540 C   0  0  0  0  0  0  0  0  0  0  0  0
  -21.8790   35.8448  -24.0984 C   0  0  0  0  0  0  0  0  0  0  0  0
  -22.2792   35.5714  -21.6823 C   0  0  0  0  0  0  0  0  0  0  0  0
  -20.3428   36.8727  -22.4146 C   0  0  0  0  0  0  0  0  0  0  0  0
  -19.4225   36.0077  -21.8909 C   0  0  0  0  0  0  0  0  0  0  0  0
  -18.1552   36.4462  -21.6269 C   0  0  0  0  0  0  0  0  0  0  0  0
  -16.8673   35.2537  -20.8966 Br  0  0  0  0  0  0  0  0  0  0  0  0
  -17.7588   37.7663  -21.8752 C   0  0  0  0  0  0  0  0  0  0  0  0
  -18.6800   38.6417  -22.4013 C   0  0  0  0  0  0  0  0  0  0  0  0
  -18.3359   40.0625  -22.7042 C   0  0  2  0  0  0  0  0  0  0  0  0
  -17.1323   40.1749  -23.5879 C   0  0  0  0  0  0  0  0  0  0  0  0
  -17.4030   39.5179  -24.8915 C   0  0  0  0  0  0  0  0  0  0  0  0
  -16.5021   39.2958  -25.7395 O   0  0  0  0  0  0  0  0  0  0  0  0
  -18.6868   39.1171  -25.2289 O   0  0  0  0  0  0  0  0  0  0  0  0
  -18.1770   40.7558  -21.4362 N   0  0  0  0  0  0  0  0  0  0  0  0
  -19.2858   41.1887  -20.6855 C   0  0  0  0  0  0  0  0  0  0  0  0
  -20.4269   40.8368  -21.1177 O   0  0  0  0  0  0  0  0  0  0  0  0
  -19.1440   41.9999  -19.4629 C   0  0  0  0  0  0  0  0  0  0  0  0
  -20.4327   42.6095  -19.1199 N   0  0  0  0  0  0  0  0  0  0  0  0
  -20.8500   42.6044  -17.7651 C   0  0  0  0  0  0  0  0  0  0  0  0
  -20.8697   41.5145  -17.1116 O   0  0  0  0  0  0  0  0  0  0  0  0
  -21.2646   43.8056  -17.0694 C   0  0  0  0  0  0  0  0  0  0  0  0
  -22.4031   43.7754  -16.2571 C   0  0  0  0  0  0  0  0  0  0  0  0
  -22.8118   44.8992  -15.5890 C   0  0  0  0  0  0  0  0  0  0  0  0
  -23.9570   44.8429  -14.7804 O   0  0  0  0  0  0  0  0  0  0  0  0
  -22.0851   46.0586  -15.7291 C   0  0  0  0  0  0  0  0  0  0  0  0
  -20.9593   46.1451  -16.5129 C   0  0  0  0  0  0  0  0  0  0  0  0
  -20.1996   47.3407  -16.6404 N   0  0  0  0  0  0  0  0  0  0  0  0
  -19.8656   48.1887  -15.5400 C   0  0  0  0  0  0  0  0  0  0  0  0
  -20.7110   48.2293  -14.5721 N   0  0  0  0  0  0  0  0  0  0  0  0
  -20.4765   49.0466  -13.4185 C   0  0  0  0  0  0  0  0  0  0  0  0
  -19.5495   50.2000  -13.6448 C   0  0  0  0  0  0  0  0  0  0  0  0
  -20.2710   51.2153  -14.2933 O   0  0  0  0  0  0  0  0  0  0  0  0
  -18.3266   49.8653  -14.4486 C   0  0  0  0  0  0  0  0  0  0  0  0
  -18.6655   48.9414  -15.5072 N   0  0  0  0  0  0  0  0  0  0  0  0
  -20.5816   44.9852  -17.1712 C   0  0  0  0  0  0  0  0  0  0  0  0
  -19.9638   38.1908  -22.6672 C   0  0  0  0  0  0  0  0  0  0  0  0
  1  2  1  0
  2  3  1  0
  2  4  1  0
  2  5  1  0
  5  6  2  0
  6  7  1  0
  7  8  1  0
  7  9  2  0
  9 10  1  0
 10 11  1  0
 11 12  1  1
 12 13  1  0
 13 14  2  0
 13 15  1  0
 11 16  1  0
 16 17  1  0
 17 18  2  0
 17 19  1  0
 19 20  1  0
 20 21  1  0
 21 22  2  0
 21 23  1  0
 23 24  2  0
 24 25  1  0
 25 26  1  0
 25 27  2  0
 27 28  1  0
 28 29  1  0
 29 30  1  0
 30 31  2  0
 31 32  1  0
 32 33  1  0
 33 34  1  0
 33 35  1  0
 35 36  1  0
 28 37  2  0
 10 38  2  0
 38  5  1  0
 37 23  1  0
 36 30  1  0
M  END
$$$$
