
     RDKit          3D

 17 18  0  0  0  0  0  0  0  0999 V2000
  -16.2356   43.0934  -20.2550 N   0  0  0  0  0  0  0  0  0  0  0  0
  -17.1091   42.0312  -20.6043 C   0  0  0  0  0  0  0  0  0  0  0  0
  -18.4638   42.0624  -20.3479 C   0  0  0  0  0  0  0  0  0  0  0  0
  -19.2476   40.9787  -20.7234 C   0  0  0  0  0  0  0  0  0  0  0  0
  -18.7364   39.8984  -21.3280 N   0  0  0  0  0  0  0  0  0  0  0  0
  -19.5875   38.8161  -21.6909 C   0  0  2  0  0  0  0  0  0  0  0  0
  -19.3726   37.6539  -20.9934 O   0  0  0  0  0  0  0  0  0  0  0  0
  -19.5807   36.5817  -21.8262 C   0  0  2  0  0  0  0  0  0  0  0  0
  -18.2547   35.8901  -22.1741 C   0  0  0  0  0  0  0  0  0  0  0  0
  -18.4147   34.5164  -22.2268 O   0  0  0  0  0  0  0  0  0  0  0  0
  -20.1988   37.1272  -23.0974 C   0  0  1  0  0  0  0  0  0  0  0  0
  -21.5226   37.4220  -22.8284 O   0  0  0  0  0  0  0  0  0  0  0  0
  -19.4470   38.4422  -23.1742 C   0  0  1  0  0  0  0  0  0  0  0  0
  -20.0883   39.3677  -23.9809 O   0  0  0  0  0  0  0  0  0  0  0  0
  -17.4125   39.8869  -21.5695 C   0  0  0  0  0  0  0  0  0  0  0  0
  -16.9176   38.8650  -22.1435 O   0  0  0  0  0  0  0  0  0  0  0  0
  -16.6184   40.9348  -21.2129 N   0  0  0  0  0  0  0  0  0  0  0  0
  1  2  1  0
  2  3  1  0
  3  4  2  0
  4  5  1  0
  6  5  1  1
  6  7  1  0
  7  8  1  0
  8  9  1  6
  9 10  1  0
  8 11  1  0
 11 12  1  1
 11 13  1  0
 13 14  1  6
  5 15  1  0
 15 16  2  0
 15 17  1  0
 17  2  2  0
 13  6  1  0
M  END
$$$$
