
     RDKit          3D

 15 16  0  0  0  0  0  0  0  0999 V2000
  -21.0916   38.9578  -18.7658 O   0  0  0  0  0  0  0  0  0  0  0  0
  -20.2496   39.7824  -19.1748 C   0  0  0  0  0  0  0  0  0  0  0  0
  -19.8131   41.0793  -18.5612 C   0  0  0  0  0  0  0  0  0  0  0  0
  -19.4588   41.8511  -19.7987 C   0  0  0  0  0  0  0  0  0  0  0  0
  -19.5394   43.0903  -19.9863 O   0  0  0  0  0  0  0  0  0  0  0  0
  -18.9817   40.8826  -20.7989 C   0  0  0  0  0  0  0  0  0  0  0  0
  -18.2130   41.0007  -21.9382 C   0  0  0  0  0  0  0  0  0  0  0  0
  -17.6068   42.5709  -22.4210 Cl  0  0  0  0  0  0  0  0  0  0  0  0
  -17.8924   39.9013  -22.7367 C   0  0  0  0  0  0  0  0  0  0  0  0
  -16.9143   40.0792  -24.1784 Cl  0  0  0  0  0  0  0  0  0  0  0  0
  -18.3807   38.6871  -22.3337 C   0  0  0  0  0  0  0  0  0  0  0  0
  -18.0253   37.2639  -23.2762 Cl  0  0  0  0  0  0  0  0  0  0  0  0
  -19.1451   38.5603  -21.2034 C   0  0  0  0  0  0  0  0  0  0  0  0
  -19.7361   37.0012  -20.7407 Cl  0  0  0  0  0  0  0  0  0  0  0  0
  -19.4688   39.6541  -20.4018 C   0  0  0  0  0  0  0  0  0  0  0  0
  1  2  2  0
  2  3  1  0
  3  4  1  0
  4  5  2  0
  4  6  1  0
  6  7  2  0
  7  8  1  0
  7  9  1  0
  9 10  1  0
  9 11  2  0
 11 12  1  0
 11 13  1  0
 13 14  1  0
 13 15  2  0
 15  2  1  0
 15  6  1  0
M  END
$$$$
