
     RDKit          3D

 34 37  0  0  0  0  0  0  0  0999 V2000
  -22.4692   19.5886  -39.0009 C   0  0  0  0  0  0  0  0  0  0  0  0
  -23.3020   20.1977  -38.3850 C   0  0  0  0  0  0  0  0  0  0  0  0
  -24.3303   20.9407  -37.6118 C   0  0  0  0  0  0  0  0  0  0  0  0
  -23.9604   22.2782  -37.3029 N   0  0  0  0  0  0  0  0  0  0  0  0
  -22.5959   22.7108  -37.3824 C   0  0  0  0  0  0  0  0  0  0  0  0
  -22.2403   23.6961  -38.3980 C   0  0  0  0  0  0  0  0  0  0  0  0
  -22.6577   23.5316  -39.7210 C   0  0  0  0  0  0  0  0  0  0  0  0
  -22.2712   24.4273  -40.6544 C   0  0  0  0  0  0  0  0  0  0  0  0
  -22.6996   24.2458  -41.9624 C   0  0  0  0  0  0  0  0  0  0  0  0
  -23.4325   23.2506  -42.2352 O   0  0  0  0  0  0  0  0  0  0  0  0
  -22.3179   25.1366  -42.8879 N   0  0  0  0  0  0  0  0  0  0  0  0
  -21.5446   26.1986  -42.6339 C   0  0  0  0  0  0  0  0  0  0  0  0
  -21.1365   27.1794  -43.6926 C   0  0  0  0  0  0  0  0  0  0  0  0
  -21.1433   26.3513  -41.3594 N   0  0  0  0  0  0  0  0  0  0  0  0
  -21.4712   25.5177  -40.3685 C   0  0  0  0  0  0  0  0  0  0  0  0
  -21.0593   25.6862  -39.0751 C   0  0  0  0  0  0  0  0  0  0  0  0
  -21.4509   24.7679  -38.0926 C   0  0  0  0  0  0  0  0  0  0  0  0
  -20.8808   25.1899  -36.3007 Br  0  0  0  0  0  0  0  0  0  0  0  0
  -24.9653   23.2483  -36.9096 C   0  0  0  0  0  0  0  0  0  0  0  0
  -25.3865   24.2508  -37.7519 C   0  0  0  0  0  0  0  0  0  0  0  0
  -26.3456   25.2001  -37.3785 C   0  0  0  0  0  0  0  0  0  0  0  0
  -26.9253   25.1796  -36.1344 C   0  0  0  0  0  0  0  0  0  0  0  0
  -27.9285   26.1859  -35.7464 C   0  0  0  0  0  0  0  0  0  0  0  0
  -27.9936   27.2294  -36.4245 O   0  0  0  0  0  0  0  0  0  0  0  0
  -28.8057   26.0190  -34.6546 N   0  0  0  0  0  0  0  0  0  0  0  0
  -29.7786   26.9791  -34.2546 C   0  0  0  0  0  0  0  0  0  0  0  0
  -31.1317   26.6982  -34.7585 C   0  0  0  0  0  0  0  0  0  0  0  0
  -32.1194   26.2768  -33.8706 C   0  0  0  0  0  0  0  0  0  0  0  0
  -33.3799   26.0373  -34.3749 C   0  0  0  0  0  0  0  0  0  0  0  0
  -33.7161   26.1894  -35.6980 C   0  0  0  0  0  0  0  0  0  0  0  0
  -32.7492   26.5966  -36.5376 N   0  0  0  0  0  0  0  0  0  0  0  0
  -31.5100   26.8373  -36.0696 C   0  0  0  0  0  0  0  0  0  0  0  0
  -26.5154   24.1867  -35.2872 C   0  0  0  0  0  0  0  0  0  0  0  0
  -25.5525   23.2346  -35.6629 C   0  0  0  0  0  0  0  0  0  0  0  0
  1  2  3  0
  2  3  1  0
  3  4  1  0
  4  5  1  0
  5  6  1  0
  6  7  2  0
  7  8  1  0
  8  9  1  0
  9 10  2  0
  9 11  1  0
 11 12  1  0
 12 13  1  0
 12 14  2  0
 14 15  1  0
 15 16  1  0
 16 17  2  0
 17 18  1  0
  4 19  1  0
 19 20  2  0
 20 21  1  0
 21 22  2  0
 22 23  1  0
 23 24  2  0
 23 25  1  0
 25 26  1  0
 26 27  1  0
 27 28  2  0
 28 29  1  0
 29 30  2  0
 30 31  1  0
 31 32  2  0
 22 33  1  0
 33 34  2  0
 17  6  1  0
 34 19  1  0
 15  8  2  0
 32 27  1  0
M  END
$$$$
