
     RDKit          3D

 29 33  0  0  0  0  0  0  0  0999 V2000
  -11.3116   45.8676  -14.7169 C   0  0  0  0  0  0  0  0  0  0  0  0
  -10.6916   45.4660  -16.0588 C   0  0  0  0  0  0  0  0  0  0  0  0
   -9.2225   45.8971  -16.0874 C   0  0  0  0  0  0  0  0  0  0  0  0
  -11.4228   46.0096  -17.0898 O   0  0  0  0  0  0  0  0  0  0  0  0
  -12.4262   45.4425  -17.8246 C   0  0  0  0  0  0  0  0  0  0  0  0
  -12.4369   45.5135  -19.1878 C   0  0  0  0  0  0  0  0  0  0  0  0
  -13.4817   44.9201  -19.9125 C   0  0  0  0  0  0  0  0  0  0  0  0
  -14.5045   44.2628  -19.2794 C   0  0  0  0  0  0  0  0  0  0  0  0
  -15.5734   43.6560  -20.0322 C   0  0  0  0  0  0  0  0  0  0  0  0
  -16.3604   44.4336  -20.8747 C   0  0  0  0  0  0  0  0  0  0  0  0
  -17.3667   43.9216  -21.6007 N   0  0  0  0  0  0  0  0  0  0  0  0
  -17.6065   42.5962  -21.4929 C   0  0  0  0  0  0  0  0  0  0  0  0
  -18.5620   41.8299  -22.1184 C   0  0  0  0  0  0  0  0  0  0  0  0
  -19.6008   42.1917  -23.0727 C   0  0  0  0  0  0  0  0  0  0  0  0
  -20.9329   41.8795  -22.8616 C   0  0  0  0  0  0  0  0  0  0  0  0
  -21.8685   42.2430  -23.7948 C   0  0  0  0  0  0  0  0  0  0  0  0
  -21.5446   42.8982  -24.9212 N   0  0  0  0  0  0  0  0  0  0  0  0
  -20.2538   43.2133  -25.1493 C   0  0  0  0  0  0  0  0  0  0  0  0
  -19.9164   43.8978  -26.3254 C   0  0  0  0  0  0  0  0  0  0  0  0
  -18.5917   44.2120  -26.5417 C   0  0  0  0  0  0  0  0  0  0  0  0
  -17.6263   43.8615  -25.6242 C   0  0  0  0  0  0  0  0  0  0  0  0
  -17.9588   43.1907  -24.4721 C   0  0  0  0  0  0  0  0  0  0  0  0
  -19.2890   42.8658  -24.2378 C   0  0  0  0  0  0  0  0  0  0  0  0
  -18.3687   40.5476  -21.6577 C   0  0  0  0  0  0  0  0  0  0  0  0
  -17.3369   40.5703  -20.7952 N   0  0  0  0  0  0  0  0  0  0  0  0
  -16.8606   41.7935  -20.6789 N   0  0  0  0  0  0  0  0  0  0  0  0
  -15.8587   42.3172  -19.9594 C   0  0  0  0  0  0  0  0  0  0  0  0
  -14.4984   44.1888  -17.9127 C   0  0  0  0  0  0  0  0  0  0  0  0
  -13.4826   44.7640  -17.1765 C   0  0  0  0  0  0  0  0  0  0  0  0
  1  2  1  0
  2  3  1  0
  2  4  1  0
  4  5  1  0
  5  6  2  0
  6  7  1  0
  7  8  2  0
  8  9  1  0
  9 10  1  0
 10 11  2  0
 11 12  1  0
 12 13  2  0
 13 14  1  0
 14 15  2  0
 15 16  1  0
 16 17  2  0
 17 18  1  0
 18 19  2  0
 19 20  1  0
 20 21  2  0
 21 22  1  0
 22 23  2  0
 13 24  1  0
 24 25  2  0
 25 26  1  0
 26 27  1  0
  8 28  1  0
 28 29  2  0
 29  5  1  0
 27  9  2  0
 26 12  1  0
 23 14  1  0
 23 18  1  0
M  END
$$$$
