
     RDKit          3D

 40 45  0  0  0  0  0  0  0  0999 V2000
  -11.9402   45.7229  -13.1988 C   0  0  0  0  0  0  0  0  0  0  0  0
  -11.9039   45.7608  -14.5548 O   0  0  0  0  0  0  0  0  0  0  0  0
  -12.6116   46.7454  -15.1980 C   0  0  0  0  0  0  0  0  0  0  0  0
  -12.5939   46.5650  -16.6761 C   0  0  0  0  0  0  0  0  0  0  0  0
  -13.6546   45.7406  -17.1249 N   0  0  0  0  0  0  0  0  0  0  0  0
  -13.3345   44.7790  -18.1186 C   0  0  0  0  0  0  0  0  0  0  0  0
  -13.7448   45.1592  -19.5304 C   0  0  0  0  0  0  0  0  0  0  0  0
  -14.9365   45.9267  -19.6139 N   0  0  0  0  0  0  0  0  0  0  0  0
  -15.7571   45.7027  -20.7703 C   0  0  0  0  0  0  0  0  0  0  0  0
  -16.2327   44.3256  -20.9417 C   0  0  0  0  0  0  0  0  0  0  0  0
  -16.7311   43.9178  -22.1570 C   0  0  0  0  0  0  0  0  0  0  0  0
  -17.1766   42.6112  -22.2864 C   0  0  0  0  0  0  0  0  0  0  0  0
  -17.1516   41.6853  -21.2648 C   0  0  0  0  0  0  0  0  0  0  0  0
  -17.6417   40.3267  -21.4888 C   0  0  0  0  0  0  0  0  0  0  0  0
  -16.9999   39.1687  -21.2804 N   0  0  0  0  0  0  0  0  0  0  0  0
  -17.7759   38.1462  -21.5984 N   0  0  0  0  0  0  0  0  0  0  0  0
  -18.9850   38.6008  -22.0381 C   0  0  0  0  0  0  0  0  0  0  0  0
  -18.8874   39.9741  -21.9644 C   0  0  0  0  0  0  0  0  0  0  0  0
  -20.1738   40.5132  -22.4304 C   0  0  0  0  0  0  0  0  0  0  0  0
  -20.4358   41.7393  -22.4952 O   0  0  0  0  0  0  0  0  0  0  0  0
  -21.0116   39.3718  -22.7741 C   0  0  0  0  0  0  0  0  0  0  0  0
  -22.3017   39.3494  -23.2549 C   0  0  0  0  0  0  0  0  0  0  0  0
  -22.9621   40.5867  -23.4727 N   0  0  0  0  0  0  0  0  0  0  0  0
  -24.3900   40.6933  -23.4342 C   0  0  0  0  0  0  0  0  0  0  0  0
  -25.0279   39.9034  -24.1705 O   0  0  0  0  0  0  0  0  0  0  0  0
  -25.0631   41.6362  -22.6126 N   0  0  0  0  0  0  0  0  0  0  0  0
  -25.3484   42.9264  -22.9540 N   0  0  0  0  0  0  0  0  0  0  0  0
  -26.0282   43.1747  -24.1591 C   0  0  0  0  0  0  0  0  0  0  0  0
  -26.2557   44.6297  -24.4700 C   0  0  0  0  0  0  0  0  0  0  0  0
  -26.3518   45.4375  -23.3728 O   0  0  0  0  0  0  0  0  0  0  0  0
  -26.8395   44.6946  -22.3013 C   0  0  0  0  0  0  0  0  0  0  0  0
  -25.6814   43.7953  -21.8601 C   0  0  0  0  0  0  0  0  0  0  0  0
  -22.8895   38.1324  -23.5054 C   0  0  0  0  0  0  0  0  0  0  0  0
  -22.1707   36.9611  -23.2685 C   0  0  0  0  0  0  0  0  0  0  0  0
  -20.8660   36.9971  -22.7822 C   0  0  0  0  0  0  0  0  0  0  0  0
  -20.2952   38.2098  -22.5379 C   0  0  0  0  0  0  0  0  0  0  0  0
  -16.6496   42.1115  -20.0569 C   0  0  0  0  0  0  0  0  0  0  0  0
  -16.1945   43.4081  -19.8856 C   0  0  0  0  0  0  0  0  0  0  0  0
  -15.7047   45.7542  -18.4006 C   0  0  0  0  0  0  0  0  0  0  0  0
  -14.9022   46.4332  -17.3014 C   0  0  0  0  0  0  0  0  0  0  0  0
  1  2  1  0
  2  3  1  0
  3  4  1  0
  4  5  1  0
  5  6  1  0
  6  7  1  0
  7  8  1  0
  8  9  1  0
  9 10  1  0
 10 11  2  0
 11 12  1  0
 12 13  2  0
 13 14  1  0
 14 15  2  0
 15 16  1  0
 16 17  1  0
 17 18  2  0
 18 19  1  0
 19 20  2  0
 19 21  1  0
 21 22  2  0
 22 23  1  0
 23 24  1  0
 24 25  2  0
 24 26  1  0
 26 27  1  0
 27 28  1  0
 28 29  1  0
 29 30  1  0
 30 31  1  0
 31 32  1  0
 22 33  1  0
 33 34  2  0
 34 35  1  0
 35 36  2  0
 13 37  1  0
 37 38  2  0
  8 39  1  0
 39 40  1  0
 40  5  1  0
 38 10  1  0
 18 14  1  0
 36 21  1  0
 36 17  1  0
 32 27  1  0
M  END
$$$$
