
     RDKit          3D

 36 38  0  0  0  0  0  0  0  0999 V2000
  -14.2671   15.7289  -41.1010 C   0  0  0  0  0  0  0  0  0  0  0  0
  -15.1617   16.9332  -41.1939 C   0  0  2  0  0  0  0  0  0  0  0  0
  -14.7000   17.9754  -42.0430 N   0  0  0  0  0  0  0  0  0  0  0  0
  -15.1987   18.0966  -43.3720 C   0  0  0  0  0  0  0  0  0  0  0  0
  -16.1801   17.3867  -43.6909 O   0  0  0  0  0  0  0  0  0  0  0  0
  -14.6319   19.0072  -44.4115 C   0  0  0  0  0  0  0  0  0  0  0  0
  -14.3561   18.1919  -45.6463 C   0  0  0  0  0  0  0  0  0  0  0  0
  -13.3208   19.6181  -43.9448 C   0  0  0  0  0  0  0  0  0  0  0  0
  -15.5313   20.0378  -44.5541 O   0  0  0  0  0  0  0  0  0  0  0  0
  -16.1637   20.8846  -43.7551 C   0  0  0  0  0  0  0  0  0  0  0  0
  -16.5079   22.1643  -44.0640 C   0  0  0  0  0  0  0  0  0  0  0  0
  -17.1826   22.9733  -43.1317 C   0  0  0  0  0  0  0  0  0  0  0  0
  -17.5124   22.5040  -41.8945 C   0  0  0  0  0  0  0  0  0  0  0  0
  -18.2248   23.3201  -40.8732 C   0  0  0  0  0  0  0  0  0  0  0  0
  -17.5608   23.0877  -39.6661 F   0  0  0  0  0  0  0  0  0  0  0  0
  -19.5349   22.9218  -40.7421 F   0  0  0  0  0  0  0  0  0  0  0  0
  -18.1237   24.6711  -41.1173 F   0  0  0  0  0  0  0  0  0  0  0  0
  -17.1511   21.1842  -41.5847 C   0  0  0  0  0  0  0  0  0  0  0  0
  -16.5244   20.4801  -42.4938 N   0  0  0  0  0  0  0  0  0  0  0  0
  -15.9252   17.2946  -39.9717 C   0  0  1  0  0  0  0  0  0  0  0  0
  -15.0988   17.9533  -38.9522 C   0  0  0  0  0  0  0  0  0  0  0  0
  -15.2971   17.9354  -37.5511 C   0  0  0  0  0  0  0  0  0  0  0  0
  -14.5114   17.0409  -36.7884 C   0  0  0  0  0  0  0  0  0  0  0  0
  -14.6593   16.9480  -35.4256 C   0  0  0  0  0  0  0  0  0  0  0  0
  -15.5695   17.7130  -34.7415 C   0  0  0  0  0  0  0  0  0  0  0  0
  -15.7607   17.5968  -33.0028 Cl  0  0  0  0  0  0  0  0  0  0  0  0
  -16.3289   18.5730  -35.4504 C   0  0  0  0  0  0  0  0  0  0  0  0
  -16.2001   18.6837  -36.8140 C   0  0  0  0  0  0  0  0  0  0  0  0
  -17.2031   18.0285  -40.2517 C   0  0  0  0  0  0  0  0  0  0  0  0
  -17.3760   19.3613  -40.2189 C   0  0  0  0  0  0  0  0  0  0  0  0
  -18.6205   19.8936  -40.4538 C   0  0  0  0  0  0  0  0  0  0  0  0
  -19.7243   19.1256  -40.7249 C   0  0  0  0  0  0  0  0  0  0  0  0
  -19.5796   17.7379  -40.7682 C   0  0  0  0  0  0  0  0  0  0  0  0
  -20.6484   16.9193  -40.9720 C   0  0  0  0  0  0  0  0  0  0  0  0
  -21.6497   16.1352  -41.1825 N   0  0  0  0  0  0  0  0  0  0  0  0
  -18.2879   17.2341  -40.5250 C   0  0  0  0  0  0  0  0  0  0  0  0
  2  1  1  1
  2  3  1  0
  3  4  1  0
  4  5  2  0
  4  6  1  0
  6  7  1  0
  6  8  1  0
  6  9  1  0
  9 10  1  0
 10 11  2  0
 11 12  1  0
 12 13  2  0
 13 14  1  0
 14 15  1  0
 14 16  1  0
 14 17  1  0
 13 18  1  0
 18 19  2  0
  2 20  1  0
 20 21  1  1
 21 22  1  0
 22 23  2  0
 23 24  1  0
 24 25  2  0
 25 26  1  0
 25 27  1  0
 27 28  2  0
 20 29  1  0
 29 30  2  0
 30 31  1  0
 31 32  2  0
 32 33  1  0
 33 34  1  0
 34 35  3  0
 33 36  2  0
 19 10  1  0
 28 22  1  0
 36 29  1  0
M  END
$$$$
