
     RDKit          3D

 13 13  0  0  0  0  0  0  0  0999 V2000
  -17.6366   42.1401  -21.5776 Cl  0  0  0  0  0  0  0  0  0  0  0  0
  -18.9975   39.3916  -23.0030 N   0  0  0  0  0  0  0  0  0  0  0  0
  -18.3129   39.9973  -21.8693 C   0  0  0  0  0  0  0  0  0  0  0  0
  -17.8854   41.3898  -22.2692 C   0  0  0  0  0  0  0  0  0  0  0  0
  -17.1782   42.1108  -21.1969 C   0  0  0  0  0  0  0  0  0  0  0  0
  -16.6144   41.6912  -20.0170 C   0  0  0  0  0  0  0  0  0  0  0  0
  -16.0707   42.7196  -19.3370 N   0  0  0  0  0  0  0  0  0  0  0  0
  -16.2837   43.8145  -20.0838 C   0  0  0  0  0  0  0  0  0  0  0  0
  -15.9401   45.1434  -19.8625 C   0  0  0  0  0  0  0  0  0  0  0  0
  -16.2825   46.1079  -20.7964 C   0  0  0  0  0  0  0  0  0  0  0  0
  -16.9628   45.7655  -21.9515 C   0  0  0  0  0  0  0  0  0  0  0  0
  -17.3123   44.4461  -22.1882 C   0  0  0  0  0  0  0  0  0  0  0  0
  -16.9630   43.4777  -21.2379 C   0  0  0  0  0  0  0  0  0  0  0  0
  2  3  1  0
  3  4  1  0
  4  5  1  0
  5  6  2  0
  6  7  1  0
  7  8  1  0
  8  9  2  0
  9 10  1  0
 10 11  2  0
 11 12  1  0
 12 13  2  0
 13  5  1  0
 13  8  1  0
M  END
$$$$
