
     RDKit          3D

 35 37  0  0  0  0  0  0  0  0999 V2000
  -23.7382   41.6827  -21.7028 C   0  0  0  0  0  0  0  0  0  0  0  0
  -22.8231   42.1493  -22.7838 C   0  0  0  0  0  0  0  0  0  0  0  0
  -21.4888   42.6220  -22.3244 C   0  0  0  0  0  0  0  0  0  0  0  0
  -20.7096   41.5770  -21.6142 C   0  0  0  0  0  0  0  0  0  0  0  0
  -21.0242   40.3139  -21.3341 N   0  0  0  0  0  0  0  0  0  0  0  0
  -20.0370   39.7069  -20.6804 C   0  0  0  0  0  0  0  0  0  0  0  0
  -20.0052   38.2828  -20.1943 C   0  0  0  0  0  0  0  0  0  0  0  0
  -19.0516   40.6589  -20.5502 C   0  0  0  0  0  0  0  0  0  0  0  0
  -17.7991   40.6568  -19.9796 C   0  0  0  0  0  0  0  0  0  0  0  0
  -17.3953   39.6051  -19.4426 O   0  0  0  0  0  0  0  0  0  0  0  0
  -17.0330   41.7898  -20.0113 N   0  0  0  0  0  0  0  0  0  0  0  0
  -17.4371   42.9257  -20.5772 C   0  0  0  0  0  0  0  0  0  0  0  0
  -16.6835   44.1688  -20.6478 C   0  0  0  0  0  0  0  0  0  0  0  0
  -17.2443   45.2534  -21.3133 C   0  0  0  0  0  0  0  0  0  0  0  0
  -16.5870   46.4616  -21.4156 C   0  0  0  0  0  0  0  0  0  0  0  0
  -17.3064   47.8264  -22.2713 S   0  0  0  0  0  6  0  0  0  0  0  0
  -16.2233   48.6426  -22.9413 O   0  0  0  0  0  0  0  0  0  0  0  0
  -18.1213   47.2215  -23.3865 O   0  0  0  0  0  0  0  0  0  0  0  0
  -18.1985   48.8470  -21.2789 N   0  0  0  0  0  0  0  0  0  0  0  0
  -17.5328   49.5004  -20.2185 C   0  0  0  0  0  0  0  0  0  0  0  0
  -18.3045   50.7032  -19.7553 C   0  0  0  0  0  0  0  0  0  0  0  0
  -19.6922   50.6697  -20.0650 N   0  0  0  0  0  0  0  0  0  0  0  0
  -20.1156   51.6424  -21.0189 C   0  0  0  0  0  0  0  0  0  0  0  0
  -21.5907   51.5772  -21.3190 C   0  0  0  0  0  0  0  0  0  0  0  0
  -20.3034   49.3875  -20.1625 C   0  0  0  0  0  0  0  0  0  0  0  0
  -19.5308   48.4308  -21.0527 C   0  0  0  0  0  0  0  0  0  0  0  0
  -15.3337   46.6478  -20.8573 C   0  0  0  0  0  0  0  0  0  0  0  0
  -14.7702   45.5794  -20.1964 C   0  0  0  0  0  0  0  0  0  0  0  0
  -15.4531   44.3647  -20.1044 C   0  0  0  0  0  0  0  0  0  0  0  0
  -14.7952   43.3727  -19.4249 O   0  0  0  0  0  0  0  0  0  0  0  0
  -13.5554   43.4062  -18.8128 C   0  0  0  0  0  0  0  0  0  0  0  0
  -13.3856   44.3889  -17.7050 C   0  0  0  0  0  0  0  0  0  0  0  0
  -18.6879   42.8751  -21.1293 N   0  0  0  0  0  0  0  0  0  0  0  0
  -19.4591   41.8072  -21.1214 N   0  0  0  0  0  0  0  0  0  0  0  0
  -18.5553   44.6016  -20.8261 Cl  0  0  0  0  0  0  0  0  0  0  0  0
  1  2  1  0
  2  3  1  0
  3  4  1  0
  4  5  2  0
  5  6  1  0
  6  7  1  0
  6  8  2  0
  8  9  1  0
  9 10  2  0
  9 11  1  0
 11 12  1  0
 12 13  1  0
 13 14  2  0
 14 15  1  0
 15 16  1  0
 16 17  2  0
 16 18  2  0
 16 19  1  0
 19 20  1  0
 20 21  1  0
 21 22  1  0
 22 23  1  0
 23 24  1  0
 22 25  1  0
 25 26  1  0
 15 27  2  0
 27 28  1  0
 28 29  2  0
 29 30  1  0
 30 31  1  0
 31 32  1  0
 12 33  2  0
 33 34  1  0
 34  4  1  0
 34  8  1  0
 29 13  1  0
 26 19  1  0
M  END
$$$$
