
     RDKit          3D

 27 29  0  0  0  0  0  0  0  0999 V2000
  -16.9664   16.9476  -35.1950 C   0  0  0  0  0  0  0  0  0  0  0  0
  -16.3821   18.2746  -34.8442 C   0  0  0  0  0  0  0  0  0  0  0  0
  -14.8724   18.1789  -34.6184 C   0  0  0  0  0  0  0  0  0  0  0  0
  -16.6268   19.3594  -35.8607 C   0  0  2  0  0  0  0  0  0  0  0  0
  -15.8220   20.5972  -35.6569 C   0  0  0  0  0  0  0  0  0  0  0  0
  -16.2880   21.5394  -36.6063 O   0  0  0  0  0  0  0  0  0  0  0  0
  -18.0300   19.6312  -36.0184 N   0  0  0  0  0  0  0  0  0  0  0  0
  -18.6826   19.2438  -37.2240 C   0  0  0  0  0  0  0  0  0  0  0  0
  -17.9572   18.8930  -38.3245 N   0  0  0  0  0  0  0  0  0  0  0  0
  -18.5567   18.5166  -39.4510 C   0  0  0  0  0  0  0  0  0  0  0  0
  -17.8381   18.1423  -40.6385 N   0  0  0  0  0  0  0  0  0  0  0  0
  -16.4284   18.1603  -40.6889 C   0  0  0  0  0  0  0  0  0  0  0  0
  -15.7603   19.0732  -41.4740 C   0  0  0  0  0  0  0  0  0  0  0  0
  -14.3837   19.0852  -41.5254 C   0  0  0  0  0  0  0  0  0  0  0  0
  -13.6774   18.1497  -40.7624 C   0  0  0  0  0  0  0  0  0  0  0  0
  -14.3497   17.2466  -39.9853 C   0  0  0  0  0  0  0  0  0  0  0  0
  -13.4358   16.0867  -39.0448 Cl  0  0  0  0  0  0  0  0  0  0  0  0
  -15.7207   17.2426  -39.9408 C   0  0  0  0  0  0  0  0  0  0  0  0
  -19.9476   18.4586  -39.5747 C   0  0  0  0  0  0  0  0  0  0  0  0
  -20.8050   18.1360  -40.5380 N   0  0  0  0  0  0  0  0  0  0  0  0
  -22.0820   18.2703  -40.0857 C   0  0  0  0  0  0  0  0  0  0  0  0
  -21.9580   18.6869  -38.8113 N   0  0  0  0  0  0  0  0  0  0  0  0
  -23.0784   18.9614  -37.9369 C   0  0  0  0  0  0  0  0  0  0  0  0
  -23.2892   20.4448  -37.7787 C   0  0  0  0  0  0  0  0  0  0  0  0
  -24.3425   18.2746  -38.4344 C   0  0  0  0  0  0  0  0  0  0  0  0
  -20.6677   18.8137  -38.4631 C   0  0  0  0  0  0  0  0  0  0  0  0
  -20.0159   19.1891  -37.3408 N   0  0  0  0  0  0  0  0  0  0  0  0
  1  2  1  0
  2  3  1  0
  2  4  1  0
  4  5  1  1
  5  6  1  0
  4  7  1  0
  7  8  1  0
  8  9  2  0
  9 10  1  0
 10 11  1  0
 11 12  1  0
 12 13  2  0
 13 14  1  0
 14 15  2  0
 15 16  1  0
 16 17  1  0
 16 18  2  0
 10 19  2  0
 19 20  1  0
 20 21  2  0
 21 22  1  0
 22 23  1  0
 23 24  1  0
 23 25  1  0
 22 26  1  0
 26 27  2  0
 27  8  1  0
 18 12  1  0
 26 19  1  0
M  END
$$$$
