
     RDKit          3D

 26 27  0  0  0  0  0  0  0  0999 V2000
  -10.6718   44.9011  -14.1241 C   0  0  0  0  0  0  0  0  0  0  0  0
  -11.8738   45.8096  -14.2751 C   0  0  0  0  0  0  0  0  0  0  0  0
  -12.5517   45.4795  -15.5487 C   0  0  0  0  0  0  0  0  0  0  0  0
  -12.1671   46.1460  -16.6956 C   0  0  0  0  0  0  0  0  0  0  0  0
  -12.7877   45.8507  -17.8886 C   0  0  0  0  0  0  0  0  0  0  0  0
  -13.7755   44.8991  -17.9084 C   0  0  0  0  0  0  0  0  0  0  0  0
  -14.4366   44.5876  -19.2124 C   0  0  0  0  0  0  0  0  0  0  0  0
  -13.6552   43.4865  -19.8707 C   0  0  0  0  0  0  0  0  0  0  0  0
  -14.2137   43.1183  -21.0758 O   0  0  0  0  0  0  0  0  0  0  0  0
  -15.4246   42.5264  -21.3035 C   0  0  0  0  0  0  0  0  0  0  0  0
  -16.2717   42.1645  -20.2842 C   0  0  0  0  0  0  0  0  0  0  0  0
  -17.5037   41.5681  -20.5378 C   0  0  0  0  0  0  0  0  0  0  0  0
  -17.8564   41.3463  -21.8401 C   0  0  0  0  0  0  0  0  0  0  0  0
  -19.1615   40.7130  -22.1486 C   0  0  0  0  0  0  0  0  0  0  0  0
  -19.0985   39.2249  -22.2211 C   0  0  0  0  0  0  0  0  0  0  0  0
  -18.5281   38.5584  -20.5974 S   0  0  0  0  0  0  0  0  0  0  0  0
  -20.1418   38.4513  -19.8517 C   0  0  0  0  0  0  0  0  0  0  0  0
  -20.4041   38.1391  -18.6891 O   0  0  0  0  0  0  0  0  0  0  0  0
  -21.0424   38.7999  -20.8780 N   0  0  0  0  0  0  0  0  0  0  0  0
  -20.5098   38.7075  -22.1703 C   0  0  0  0  0  0  0  0  0  0  0  0
  -21.0816   38.2553  -23.2243 O   0  0  0  0  0  0  0  0  0  0  0  0
  -17.0513   41.6851  -22.9037 C   0  0  0  0  0  0  0  0  0  0  0  0
  -15.8445   42.2711  -22.6277 C   0  0  0  0  0  0  0  0  0  0  0  0
  -14.1513   44.2496  -16.7943 N   0  0  0  0  0  0  0  0  0  0  0  0
  -13.5408   44.5366  -15.6078 C   0  0  0  0  0  0  0  0  0  0  0  0
  -15.0202   43.0759  -18.8280 Cl  0  0  0  0  0  0  0  0  0  0  0  0
  1  2  1  0
  2  3  1  0
  3  4  2  0
  4  5  1  0
  5  6  2  0
  6  7  1  0
  7  8  1  0
  8  9  1  0
  9 10  1  0
 10 11  2  0
 11 12  1  0
 12 13  2  0
 13 14  1  0
 14 15  1  0
 15 16  1  0
 16 17  1  0
 17 18  2  0
 17 19  1  0
 19 20  1  0
 20 21  2  0
 13 22  1  0
 22 23  2  0
  6 24  1  0
 24 25  2  0
 25  3  1  0
 23 10  1  0
 20 15  1  0
M  END
$$$$
