
     RDKit          3D

 30 32  0  0  0  0  0  0  0  0999 V2000
  -14.8111   43.0266  -17.7855 C   0  0  0  0  0  0  0  0  0  0  0  0
  -14.3967   43.0860  -19.2319 C   0  0  0  0  0  0  0  0  0  0  0  0
  -13.0077   43.6912  -19.4030 C   0  0  0  0  0  0  0  0  0  0  0  0
  -15.4021   43.7838  -20.0643 C   0  0  0  0  0  0  0  0  0  0  0  0
  -15.3851   45.1354  -20.3241 C   0  0  0  0  0  0  0  0  0  0  0  0
  -16.4304   45.4264  -21.1005 N   0  0  0  0  0  0  0  0  0  0  0  0
  -17.0958   44.2946  -21.3298 N   0  0  0  0  0  0  0  0  0  0  0  0
  -18.2077   44.0466  -22.0409 C   0  0  0  0  0  0  0  0  0  0  0  0
  -18.8670   45.1173  -22.7073 N   0  0  0  0  0  0  0  0  0  0  0  0
  -19.8407   45.9577  -22.0015 C   0  0  0  0  0  0  0  0  0  0  0  0
  -20.9329   45.1455  -21.4349 C   0  0  0  0  0  0  0  0  0  0  0  0
  -22.0863   44.8643  -22.1224 C   0  0  0  0  0  0  0  0  0  0  0  0
  -23.0899   44.0878  -21.5456 C   0  0  0  0  0  0  0  0  0  0  0  0
  -22.9184   43.6024  -20.2789 C   0  0  0  0  0  0  0  0  0  0  0  0
  -21.7652   43.8789  -19.5811 C   0  0  0  0  0  0  0  0  0  0  0  0
  -20.7713   44.6475  -20.1510 C   0  0  0  0  0  0  0  0  0  0  0  0
  -18.7010   42.7416  -22.1158 C   0  0  0  0  0  0  0  0  0  0  0  0
  -18.0883   41.6810  -21.4827 C   0  0  0  0  0  0  0  0  0  0  0  0
  -18.5717   40.3451  -21.5500 N   0  0  0  0  0  0  0  0  0  0  0  0
  -19.7397   40.0949  -22.3407 C   0  0  0  0  0  0  0  0  0  0  0  0
  -20.1966   38.6718  -22.3520 C   0  0  1  0  0  0  0  0  0  0  0  0
  -19.2095   37.6915  -22.8746 C   0  0  0  0  0  0  0  0  0  0  0  0
  -19.6674   36.2994  -22.4267 C   0  0  0  0  0  0  0  0  0  0  0  0
  -21.1002   36.2002  -22.3557 N   0  0  0  0  0  0  0  0  0  0  0  0
  -21.6959   37.0424  -21.3635 C   0  0  0  0  0  0  0  0  0  0  0  0
  -20.7496   38.2033  -21.0273 C   0  0  2  0  0  0  0  0  0  0  0  0
  -21.4455   39.2276  -20.3884 O   0  0  0  0  0  0  0  0  0  0  0  0
  -16.9672   41.9994  -20.7791 N   0  0  0  0  0  0  0  0  0  0  0  0
  -16.4986   43.2602  -20.7121 C   0  0  0  0  0  0  0  0  0  0  0  0
  -18.7554   41.1335  -21.1835 Cl  0  0  0  0  0  0  0  0  0  0  0  0
  1  2  1  0
  2  3  1  0
  2  4  1  0
  4  5  1  0
  5  6  2  0
  6  7  1  0
  7  8  1  0
  8  9  1  0
  9 10  1  0
 10 11  1  0
 11 12  2  0
 12 13  1  0
 13 14  2  0
 14 15  1  0
 15 16  2  0
  8 17  2  0
 17 18  1  0
 18 19  1  0
 19 20  1  0
 21 20  1  1
 21 22  1  0
 22 23  1  0
 23 24  1  0
 24 25  1  0
 25 26  1  0
 26 27  1  6
 18 28  2  0
 28 29  1  0
 29  4  2  0
 29  7  1  0
 16 11  1  0
 26 21  1  0
M  END
$$$$
