
     RDKit          3D

 25 27  0  0  0  0  0  0  0  0999 V2000
  -16.8087   16.4496  -37.9468 O   0  0  0  0  0  0  0  0  0  0  0  0
  -17.2705   17.6408  -37.9142 C   0  0  0  0  0  0  0  0  0  0  0  0
  -16.4433   18.6141  -38.5328 N   0  0  0  0  0  0  0  0  0  0  0  0
  -15.3701   18.2672  -39.4131 C   0  0  0  0  0  0  0  0  0  0  0  0
  -15.3047   18.7094  -40.7184 C   0  0  0  0  0  0  0  0  0  0  0  0
  -14.2576   18.3654  -41.5623 C   0  0  0  0  0  0  0  0  0  0  0  0
  -13.2430   17.5568  -41.0959 C   0  0  0  0  0  0  0  0  0  0  0  0
  -12.2066   17.2240  -41.9518 O   0  0  0  0  0  0  0  0  0  0  0  0
  -11.1540   18.0918  -42.1397 C   0  0  0  0  0  0  0  0  0  0  0  0
  -10.5313   18.1365  -43.3609 C   0  0  0  0  0  0  0  0  0  0  0  0
   -9.4724   19.0189  -43.5275 C   0  0  0  0  0  0  0  0  0  0  0  0
   -9.0761   19.8132  -42.4905 C   0  0  0  0  0  0  0  0  0  0  0  0
   -9.6817   19.7900  -41.2547 C   0  0  0  0  0  0  0  0  0  0  0  0
  -10.7488   18.8937  -41.1035 C   0  0  0  0  0  0  0  0  0  0  0  0
  -13.2872   17.0981  -39.7818 C   0  0  0  0  0  0  0  0  0  0  0  0
  -14.3428   17.4593  -38.9699 C   0  0  0  0  0  0  0  0  0  0  0  0
  -18.5441   17.9401  -37.2860 C   0  0  0  0  0  0  0  0  0  0  0  0
  -19.2112   19.1221  -37.4807 C   0  0  0  0  0  0  0  0  0  0  0  0
  -20.4250   19.4037  -36.8801 C   0  0  0  0  0  0  0  0  0  0  0  0
  -20.9597   18.4467  -36.0634 C   0  0  0  0  0  0  0  0  0  0  0  0
  -20.3357   17.2500  -35.8348 C   0  0  0  0  0  0  0  0  0  0  0  0
  -20.9122   16.2714  -34.9813 N   0  0  0  0  0  4  0  0  0  0  0  0
  -20.1756   15.5306  -34.3249 O   0  0  0  0  0  0  0  0  0  0  0  0
  -22.2659   16.1598  -34.8954 O   0  0  0  0  0  1  0  0  0  0  0  0
  -19.1082   16.9992  -36.4595 C   0  0  0  0  0  0  0  0  0  0  0  0
  1  2  2  0
  2  3  1  0
  3  4  1  0
  4  5  2  0
  5  6  1  0
  6  7  2  0
  7  8  1  0
  8  9  1  0
  9 10  2  0
 10 11  1  0
 11 12  2  0
 12 13  1  0
 13 14  2  0
  7 15  1  0
 15 16  2  0
  2 17  1  0
 17 18  2  0
 18 19  1  0
 19 20  2  0
 20 21  1  0
 21 22  1  0
 22 23  2  0
 22 24  1  0
 21 25  2  0
 16  4  1  0
 25 17  1  0
 14  9  1  0
M  CHG  2  22   1  24  -1
M  END
$$$$
