
     RDKit          3D

 22 24  0  0  0  0  0  0  0  0999 V2000
    4.0881   13.6325  -31.4411 O   0  0  0  0  0  0  0  0  0  0  0  0
    5.2867   14.0974  -31.3894 C   0  0  0  0  0  0  0  0  0  0  0  0
    6.1790   13.7160  -32.4153 N   0  0  0  0  0  0  0  0  0  0  0  0
    5.6985   12.7888  -33.4471 C   0  0  0  0  0  0  0  0  0  0  0  0
    6.0142   12.1514  -34.3468 N   0  0  0  0  0  0  0  0  0  0  0  0
    5.3071   11.3633  -35.1359 C   0  0  0  0  0  0  0  0  0  0  0  0
    5.7072   10.5834  -36.2406 C   0  0  0  0  0  0  0  0  0  0  0  0
    4.8144    9.8247  -36.9379 C   0  0  0  0  0  0  0  0  0  0  0  0
    3.4791    9.7588  -36.6281 C   0  0  0  0  0  0  0  0  0  0  0  0
    3.0749   10.5310  -35.5319 C   0  0  0  0  0  0  0  0  0  0  0  0
    3.9732   11.2793  -34.8495 C   0  0  0  0  0  0  0  0  0  0  0  0
    3.8485   12.3901  -33.4070 S   0  0  0  0  0  0  0  0  0  0  0  0
    5.7026   14.9719  -30.3277 C   0  0  0  0  0  0  0  0  0  0  0  0
    4.7875   15.8729  -29.7848 C   0  0  0  0  0  0  0  0  0  0  0  0
    5.1284   16.7317  -28.7700 C   0  0  0  0  0  0  0  0  0  0  0  0
    6.4349   16.6892  -28.2777 C   0  0  0  0  0  0  0  0  0  0  0  0
    7.3483   15.8093  -28.7997 C   0  0  0  0  0  0  0  0  0  0  0  0
    8.7241   15.7924  -28.2528 C   0  0  0  0  0  0  0  0  0  0  0  0
    8.6576   15.6828  -26.4692 Cl  0  0  0  0  0  0  0  0  0  0  0  0
    9.6363   14.4352  -28.9243 Cl  0  0  0  0  0  0  0  0  0  0  0  0
    9.4747   17.3544  -28.6839 Cl  0  0  0  0  0  0  0  0  0  0  0  0
    6.9588   14.9553  -29.8295 C   0  0  0  0  0  0  0  0  0  0  0  0
  1  2  2  0
  2  3  1  0
  3  4  1  0
  4  5  2  0
  5  6  1  0
  6  7  2  0
  7  8  1  0
  8  9  2  0
  9 10  1  0
 10 11  2  0
 11 12  1  0
  2 13  1  0
 13 14  2  0
 14 15  1  0
 15 16  2  0
 16 17  1  0
 17 18  1  0
 18 19  1  0
 18 20  1  0
 18 21  1  0
 17 22  2  0
 12  4  1  0
 22 13  1  0
 11  6  1  0
M  END
$$$$
