
     RDKit          3D

 24 26  0  0  0  0  0  0  0  0999 V2000
   -9.8321   41.9878  -11.8323 O   0  0  0  0  0  0  0  0  0  0  0  0
   -9.7470   43.0868  -12.4318 C   0  0  0  0  0  0  0  0  0  0  0  0
   -8.4675   43.4880  -12.8059 O   0  0  0  0  0  0  0  0  0  0  0  0
  -10.9510   43.8740  -12.7037 C   0  0  0  0  0  0  0  0  0  0  0  0
  -10.5798   45.2825  -13.1672 C   0  0  0  0  0  0  0  0  0  0  0  0
  -11.3739   45.0320  -14.3271 N   0  0  0  0  0  0  0  0  0  0  0  0
  -10.8992   45.4899  -15.5939 C   0  0  0  0  0  0  0  0  0  0  0  0
  -11.8008   44.9800  -16.6576 C   0  0  0  0  0  0  0  0  0  0  0  0
  -13.0187   45.5972  -16.8802 C   0  0  0  0  0  0  0  0  0  0  0  0
  -13.9134   45.1898  -17.8395 C   0  0  0  0  0  0  0  0  0  0  0  0
  -13.5806   44.1108  -18.6203 C   0  0  0  0  0  0  0  0  0  0  0  0
  -14.4793   43.7003  -19.5851 O   0  0  0  0  0  0  0  0  0  0  0  0
  -15.6008   42.9087  -19.2504 C   0  0  0  0  0  0  0  0  0  0  0  0
  -16.3821   42.5293  -20.4284 C   0  0  0  0  0  0  0  0  0  0  0  0
  -16.2997   43.2773  -21.5744 C   0  0  0  0  0  0  0  0  0  0  0  0
  -17.0335   42.9238  -22.6860 C   0  0  0  0  0  0  0  0  0  0  0  0
  -17.8686   41.8000  -22.6564 C   0  0  0  0  0  0  0  0  0  0  0  0
  -18.8174   41.3094  -24.0334 Cl  0  0  0  0  0  0  0  0  0  0  0  0
  -17.9428   41.0557  -21.4974 C   0  0  0  0  0  0  0  0  0  0  0  0
  -18.9894   39.6403  -21.4475 Cl  0  0  0  0  0  0  0  0  0  0  0  0
  -17.1952   41.4196  -20.3716 C   0  0  0  0  0  0  0  0  0  0  0  0
  -12.3833   43.4568  -18.4450 C   0  0  0  0  0  0  0  0  0  0  0  0
  -11.5008   43.9008  -17.4598 C   0  0  0  0  0  0  0  0  0  0  0  0
  -11.4477   43.5989  -14.1306 C   0  0  0  0  0  0  0  0  0  0  0  0
  1  2  2  0
  2  3  1  0
  2  4  1  0
  4  5  1  0
  5  6  1  0
  6  7  1  0
  7  8  1  0
  8  9  2  0
  9 10  1  0
 10 11  2  0
 11 12  1  0
 12 13  1  0
 13 14  1  0
 14 15  2  0
 15 16  1  0
 16 17  2  0
 17 18  1  0
 17 19  1  0
 19 20  1  0
 19 21  2  0
 11 22  1  0
 22 23  2  0
  6 24  1  0
 24  4  1  0
 23  8  1  0
 21 14  1  0
M  END
$$$$
