
     RDKit          3D

 31 35  0  0  0  0  0  0  0  0999 V2000
  -18.4386   43.6844  -23.7235 C   0  0  0  0  0  0  0  0  0  0  0  0
  -19.4531   44.0947  -22.7015 C   0  0  0  0  0  0  0  0  0  0  0  0
  -19.1171   43.4119  -21.3934 C   0  0  2  0  0  0  0  0  0  0  0  0
  -20.0340   43.7751  -20.3422 N   0  0  0  0  0  0  0  0  0  0  0  0
  -20.3191   42.9696  -19.2003 C   0  0  0  0  0  0  0  0  0  0  0  0
  -19.7584   41.7735  -19.0043 N   0  0  0  0  0  0  0  0  0  0  0  0
  -20.0577   41.0670  -17.9141 C   0  0  0  0  0  0  0  0  0  0  0  0
  -20.9272   41.5405  -16.9910 N   0  0  0  0  0  0  0  0  0  0  0  0
  -21.5184   42.7297  -17.1339 C   0  0  0  0  0  0  0  0  0  0  0  0
  -22.4033   43.4219  -16.3812 N   0  0  0  0  0  0  0  0  0  0  0  0
  -22.6568   44.5820  -17.0200 C   0  0  0  0  0  0  0  0  0  0  0  0
  -21.9303   44.5884  -18.1484 N   0  0  0  0  0  0  0  0  0  0  0  0
  -21.2002   43.4480  -18.2636 C   0  0  0  0  0  0  0  0  0  0  0  0
  -17.7438   43.6413  -20.9287 C   0  0  0  0  0  0  0  0  0  0  0  0
  -17.3524   44.8844  -20.5471 N   0  0  0  0  0  0  0  0  0  0  0  0
  -16.1134   45.1627  -20.1119 C   0  0  0  0  0  0  0  0  0  0  0  0
  -15.7416   46.4480  -19.7274 C   0  0  0  0  0  0  0  0  0  0  0  0
  -14.4517   46.6859  -19.2853 C   0  0  0  0  0  0  0  0  0  0  0  0
  -13.5599   45.6310  -19.2373 C   0  0  0  0  0  0  0  0  0  0  0  0
  -13.9540   44.3679  -19.6239 C   0  0  0  0  0  0  0  0  0  0  0  0
  -13.0449   43.3726  -19.5581 F   0  0  0  0  0  0  0  0  0  0  0  0
  -15.2283   44.1093  -20.0656 C   0  0  0  0  0  0  0  0  0  0  0  0
  -15.6279   42.8467  -20.4538 C   0  0  0  0  0  0  0  0  0  0  0  0
  -14.8318   41.8607  -20.4203 O   0  0  0  0  0  0  0  0  0  0  0  0
  -16.8812   42.5980  -20.8870 N   0  0  0  0  0  0  0  0  0  0  0  0
  -17.3573   41.3295  -21.2977 C   0  0  0  0  0  0  0  0  0  0  0  0
  -18.0148   40.4971  -20.3844 C   0  0  0  0  0  0  0  0  0  0  0  0
  -18.4646   39.2669  -20.8178 C   0  0  0  0  0  0  0  0  0  0  0  0
  -18.2912   38.8231  -22.1212 C   0  0  0  0  0  0  0  0  0  0  0  0
  -17.6446   39.6390  -23.0239 C   0  0  0  0  0  0  0  0  0  0  0  0
  -17.1988   40.8632  -22.5863 C   0  0  0  0  0  0  0  0  0  0  0  0
  1  2  1  0
  3  2  1  6
  3  4  1  0
  4  5  1  0
  5  6  2  0
  6  7  1  0
  7  8  2  0
  8  9  1  0
  9 10  1  0
 10 11  1  0
 11 12  2  0
 12 13  1  0
  3 14  1  0
 14 15  2  0
 15 16  1  0
 16 17  2  0
 17 18  1  0
 18 19  2  0
 19 20  1  0
 20 21  1  0
 20 22  2  0
 22 23  1  0
 23 24  2  0
 23 25  1  0
 25 26  1  0
 26 27  2  0
 27 28  1  0
 28 29  2  0
 29 30  1  0
 30 31  2  0
 13  5  1  0
 25 14  1  0
 31 26  1  0
 13  9  2  0
 22 16  1  0
M  END
$$$$
