
     RDKit          3D

 21 22  0  0  0  0  0  0  0  0999 V2000
  -27.2190   10.5827  -18.5599 C   0  0  0  0  0  0  0  0  0  0  0  0
  -27.1250   11.5428  -19.5920 O   0  0  0  0  0  0  0  0  0  0  0  0
  -28.2044   12.3010  -20.0210 C   0  0  0  0  0  0  0  0  0  0  0  0
  -27.9718   13.1733  -21.0701 C   0  0  0  0  0  0  0  0  0  0  0  0
  -28.9702   13.9498  -21.5499 C   0  0  0  0  0  0  0  0  0  0  0  0
  -30.2446   13.8481  -20.9579 C   0  0  0  0  0  0  0  0  0  0  0  0
  -31.2178   14.7024  -21.4936 N   0  0  0  0  0  4  0  0  0  0  0  0
  -31.2983   15.9347  -21.3868 O   0  0  0  0  0  0  0  0  0  0  0  0
  -32.2595   14.1125  -22.2306 O   0  0  0  0  0  1  0  0  0  0  0  0
  -30.4803   12.9963  -19.9304 C   0  0  0  0  0  0  0  0  0  0  0  0
  -32.0207   12.8188  -19.1664 S   0  0  0  0  0  6  0  0  0  0  0  0
  -33.0405   13.7616  -19.8575 O   0  0  0  0  0  0  0  0  0  0  0  0
  -32.0860   13.1938  -17.7400 O   0  0  0  0  0  0  0  0  0  0  0  0
  -32.6928   11.2058  -19.4046 C   0  0  0  0  0  0  0  0  0  0  0  0
  -32.8376   10.3173  -18.3591 C   0  0  0  0  0  0  0  0  0  0  0  0
  -33.3711    9.0513  -18.5861 C   0  0  0  0  0  0  0  0  0  0  0  0
  -33.7703    8.6367  -19.8382 C   0  0  0  0  0  0  0  0  0  0  0  0
  -34.4416    7.0327  -20.1042 Cl  0  0  0  0  0  0  0  0  0  0  0  0
  -33.6244    9.5257  -20.8789 C   0  0  0  0  0  0  0  0  0  0  0  0
  -33.0910   10.7927  -20.6548 C   0  0  0  0  0  0  0  0  0  0  0  0
  -29.4172   12.2400  -19.4970 N   0  0  0  0  0  0  0  0  0  0  0  0
  1  2  1  0
  2  3  1  0
  3  4  2  0
  4  5  1  0
  5  6  2  0
  6  7  1  0
  7  8  2  0
  7  9  1  0
  6 10  1  0
 10 11  1  0
 11 12  2  0
 11 13  2  0
 11 14  1  0
 14 15  2  0
 15 16  1  0
 16 17  2  0
 17 18  1  0
 17 19  1  0
 19 20  2  0
 10 21  2  0
 21  3  1  0
 20 14  1  0
M  CHG  2   7   1   9  -1
M  END
$$$$
