
     RDKit          3D

 23 25  0  0  0  0  0  0  0  0999 V2000
  -22.6452   41.9083  -21.9438 C   0  0  0  0  0  0  0  0  0  0  0  0
  -21.4113   42.5311  -22.2613 O   0  0  0  0  0  0  0  0  0  0  0  0
  -20.2690   41.7273  -22.3349 C   0  0  0  0  0  0  0  0  0  0  0  0
  -20.3323   40.3694  -22.1588 C   0  0  0  0  0  0  0  0  0  0  0  0
  -19.1907   39.5485  -22.2302 C   0  0  0  0  0  0  0  0  0  0  0  0
  -19.3435   38.1244  -22.0326 C   0  0  0  0  0  0  0  0  0  0  0  0
  -20.5533   37.6313  -21.7717 O   0  0  0  0  0  0  0  0  0  0  0  0
  -20.7945   36.3638  -21.5783 C   0  0  0  0  0  0  0  0  0  0  0  0
  -22.0912   35.9148  -21.3084 C   0  0  0  0  0  0  0  0  0  0  0  0
  -22.3753   34.5838  -21.1001 C   0  0  0  0  0  0  0  0  0  0  0  0
  -23.7041   34.2418  -20.8378 O   0  0  0  0  0  0  0  0  0  0  0  0
  -21.3823   33.6480  -21.1520 C   0  0  0  0  0  0  0  0  0  0  0  0
  -20.0996   34.0694  -21.4163 C   0  0  0  0  0  0  0  0  0  0  0  0
  -19.0528   33.1620  -21.4806 O   0  0  0  0  0  0  0  0  0  0  0  0
  -19.8041   35.4185  -21.6286 C   0  0  0  0  0  0  0  0  0  0  0  0
  -18.5291   35.8507  -21.8929 C   0  0  0  0  0  0  0  0  0  0  0  0
  -17.5759   35.0369  -21.9529 O   0  0  0  0  0  0  0  0  0  0  0  0
  -18.3277   37.2295  -22.0932 C   0  0  0  0  0  0  0  0  0  0  0  0
  -17.0277   37.5934  -22.3534 O   0  0  0  0  0  0  0  0  0  0  0  0
  -18.0287   40.2062  -22.4861 C   0  0  0  0  0  0  0  0  0  0  0  0
  -17.9550   41.5967  -22.6677 C   0  0  0  0  0  0  0  0  0  0  0  0
  -19.0821   42.3745  -22.5932 C   0  0  0  0  0  0  0  0  0  0  0  0
  -19.0264   43.7598  -22.7715 O   0  0  0  0  0  0  0  0  0  0  0  0
  1  2  1  0
  2  3  1  0
  3  4  2  0
  4  5  1  0
  5  6  1  0
  6  7  1  0
  7  8  1  0
  8  9  2  0
  9 10  1  0
 10 11  1  0
 10 12  2  0
 12 13  1  0
 13 14  1  0
 13 15  2  0
 15 16  1  0
 16 17  2  0
 16 18  1  0
 18 19  1  0
  5 20  2  0
 20 21  1  0
 21 22  2  0
 22 23  1  0
 22  3  1  0
 18  6  2  0
 15  8  1  0
M  END
$$$$
