
     RDKit          3D

 36 38  0  0  0  0  0  0  0  0999 V2000
   -6.9724   17.6972  -43.0669 C   0  0  0  0  0  0  0  0  0  0  0  0
   -8.1130   17.8913  -42.1609 C   0  0  0  0  0  0  0  0  0  0  0  0
   -7.7237   17.3419  -40.7764 C   0  0  0  0  0  0  0  0  0  0  0  0
   -8.2315   19.3036  -41.9903 F   0  0  0  0  0  0  0  0  0  0  0  0
   -9.4614   17.4434  -42.5517 C   0  0  0  0  0  0  0  0  0  0  0  0
  -10.5689   18.3710  -42.3120 C   0  0  2  0  0  0  0  0  0  0  0  0
  -11.8645   17.7668  -42.6418 N   0  0  0  0  0  0  0  0  0  0  0  0
  -12.8589   17.7979  -41.6526 C   0  0  1  0  0  0  0  0  0  0  0  0
  -14.0341   18.5652  -42.0375 C   0  0  0  0  0  0  0  0  0  0  0  0
  -14.3955   19.6240  -41.1963 C   0  0  0  0  0  0  0  0  0  0  0  0
  -15.4963   20.4110  -41.4323 C   0  0  0  0  0  0  0  0  0  0  0  0
  -16.2948   20.1804  -42.5269 C   0  0  0  0  0  0  0  0  0  0  0  0
  -17.4966   20.9572  -42.8342 C   0  0  0  0  0  0  0  0  0  0  0  0
  -17.4748   22.2797  -43.2263 C   0  0  0  0  0  0  0  0  0  0  0  0
  -18.6471   22.9545  -43.5261 C   0  0  0  0  0  0  0  0  0  0  0  0
  -19.8527   22.2921  -43.4302 C   0  0  0  0  0  0  0  0  0  0  0  0
  -21.3661   23.0909  -43.7995 S   0  0  0  0  0  6  0  0  0  0  0  0
  -21.5253   23.3424  -45.5692 C   0  0  0  0  0  0  0  0  0  0  0  0
  -21.5244   24.3898  -43.0735 O   0  0  0  0  0  0  0  0  0  0  0  0
  -22.4791   22.1491  -43.4237 O   0  0  0  0  0  0  0  0  0  0  0  0
  -19.8620   20.9514  -43.0309 C   0  0  0  0  0  0  0  0  0  0  0  0
  -18.6891   20.3101  -42.7412 C   0  0  0  0  0  0  0  0  0  0  0  0
  -15.9224   19.1229  -43.3576 C   0  0  0  0  0  0  0  0  0  0  0  0
  -14.8200   18.3287  -43.1263 C   0  0  0  0  0  0  0  0  0  0  0  0
  -13.0574   16.5987  -40.7992 C   0  0  0  0  0  0  0  0  0  0  0  0
  -14.2574   16.7635  -40.1024 F   0  0  0  0  0  0  0  0  0  0  0  0
  -13.1612   15.4006  -41.4338 F   0  0  0  0  0  0  0  0  0  0  0  0
  -12.0620   16.5807  -39.8145 F   0  0  0  0  0  0  0  0  0  0  0  0
  -10.5044   19.5776  -43.1414 C   0  0  0  0  0  0  0  0  0  0  0  0
  -10.0446   19.6171  -44.3228 O   0  0  0  0  0  0  0  0  0  0  0  0
  -10.9776   20.8186  -42.6437 N   0  0  0  0  0  0  0  0  0  0  0  0
  -10.6439   22.0442  -43.3684 C   0  0  0  0  0  0  0  0  0  0  0  0
  -11.5047   22.2732  -44.5024 C   0  0  0  0  0  0  0  0  0  0  0  0
  -12.2227   22.4579  -45.4145 N   0  0  0  0  0  0  0  0  0  0  0  0
  -10.3796   23.2919  -42.5143 C   0  0  0  0  0  0  0  0  0  0  0  0
   -9.2911   22.6282  -43.2842 C   0  0  0  0  0  0  0  0  0  0  0  0
  1  2  1  0
  2  3  1  0
  2  4  1  0
  2  5  1  0
  6  5  1  6
  6  7  1  0
  8  7  1  6
  8  9  1  0
  9 10  2  0
 10 11  1  0
 11 12  2  0
 12 13  1  0
 13 14  2  0
 14 15  1  0
 15 16  2  0
 16 17  1  0
 17 18  1  0
 17 19  2  0
 17 20  2  0
 16 21  1  0
 21 22  2  0
 12 23  1  0
 23 24  2  0
  8 25  1  0
 25 26  1  0
 25 27  1  0
 25 28  1  0
  6 29  1  0
 29 30  2  0
 29 31  1  0
 31 32  1  0
 32 33  1  0
 33 34  3  0
 32 35  1  0
 35 36  1  0
 24  9  1  0
 36 32  1  0
 22 13  1  0
M  END
$$$$
