
     RDKit          3D

 34 38  0  0  0  0  0  0  0  0999 V2000
  -22.3572   38.2834  -26.9392 C   0  0  0  0  0  0  0  0  0  0  0  0
  -22.3989   38.5043  -25.4999 N   0  0  0  0  0  0  0  0  0  0  0  0
  -23.5950   39.3016  -25.2383 C   0  0  0  0  0  0  0  0  0  0  0  0
  -22.5865   37.2313  -24.8153 C   0  0  0  0  0  0  0  0  0  0  0  0
  -21.6605   37.1172  -23.6225 C   0  0  0  0  0  0  0  0  0  0  0  0
  -22.4755   36.7780  -22.4000 C   0  0  0  0  0  0  0  0  0  0  0  0
  -21.7702   36.9420  -21.2100 O   0  0  0  0  0  0  0  0  0  0  0  0
  -20.8776   37.9801  -20.9509 C   0  0  0  0  0  0  0  0  0  0  0  0
  -19.5367   37.7408  -21.1603 C   0  0  0  0  0  0  0  0  0  0  0  0
  -18.6133   38.7621  -20.9097 C   0  0  0  0  0  0  0  0  0  0  0  0
  -19.0209   39.9942  -20.4602 C   0  0  0  0  0  0  0  0  0  0  0  0
  -18.0655   41.0659  -20.1945 C   0  0  0  0  0  0  0  0  0  0  0  0
  -17.0177   40.8448  -19.3280 C   0  0  0  0  0  0  0  0  0  0  0  0
  -16.1205   41.8372  -19.0714 C   0  0  0  0  0  0  0  0  0  0  0  0
  -16.2405   43.0873  -19.6739 C   0  0  0  0  0  0  0  0  0  0  0  0
  -15.3342   44.0424  -19.3919 N   0  0  0  0  0  0  0  0  0  0  0  0
  -15.4569   45.2304  -19.9682 C   0  0  0  0  0  0  0  0  0  0  0  0
  -16.4701   45.5212  -20.8387 C   0  0  0  0  0  0  0  0  0  0  0  0
  -17.4228   44.5362  -21.1429 C   0  0  0  0  0  0  0  0  0  0  0  0
  -17.3048   43.2874  -20.5445 C   0  0  0  0  0  0  0  0  0  0  0  0
  -18.2125   42.3092  -20.8144 C   0  0  0  0  0  0  0  0  0  0  0  0
  -18.3150   45.0258  -22.0078 N   0  0  0  0  0  0  0  0  0  0  0  0
  -19.4613   44.4220  -22.6225 C   0  0  0  0  0  0  0  0  0  0  0  0
  -19.3293   43.7870  -23.9577 C   0  0  0  0  0  0  0  0  0  0  0  0
  -20.6964   43.8391  -24.6158 C   0  0  0  0  0  0  0  0  0  0  0  0
  -21.6432   44.5064  -23.8716 O   0  0  0  0  0  0  0  0  0  0  0  0
  -21.8589   43.9310  -22.6267 C   0  0  0  0  0  0  0  0  0  0  0  0
  -20.6227   44.0768  -21.7558 C   0  0  0  0  0  0  0  0  0  0  0  0
  -17.8889   46.3282  -22.2239 C   0  0  0  0  0  0  0  0  0  0  0  0
  -18.4572   47.1439  -22.9804 O   0  0  0  0  0  0  0  0  0  0  0  0
  -16.8040   46.6151  -21.5349 N   0  0  0  0  0  0  0  0  0  0  0  0
  -16.0485   47.8587  -21.4817 C   0  0  0  0  0  0  0  0  0  0  0  0
  -20.3666   40.1738  -20.2702 C   0  0  0  0  0  0  0  0  0  0  0  0
  -21.2611   39.1765  -20.5155 N   0  0  0  0  0  0  0  0  0  0  0  0
  1  2  1  0
  2  3  1  0
  2  4  1  0
  4  5  1  0
  5  6  1  0
  6  7  1  0
  7  8  1  0
  8  9  2  0
  9 10  1  0
 10 11  2  0
 11 12  1  0
 12 13  2  0
 13 14  1  0
 14 15  2  0
 15 16  1  0
 16 17  2  0
 17 18  1  0
 18 19  2  0
 19 20  1  0
 20 21  2  0
 19 22  1  0
 22 23  1  0
 23 24  1  0
 24 25  1  0
 25 26  1  0
 26 27  1  0
 27 28  1  0
 22 29  1  0
 29 30  2  0
 29 31  1  0
 31 32  1  0
 11 33  1  0
 33 34  2  0
 34  8  1  0
 21 12  1  0
 28 23  1  0
 20 15  1  0
 31 18  1  0
M  END
$$$$
