
     RDKit          3D

 34 37  0  0  0  0  0  0  0  0999 V2000
  -18.6307   15.4786  -29.5903 O   0  0  0  0  0  0  0  0  0  0  0  0
  -18.1643   15.6849  -30.7266 C   0  0  0  0  0  0  0  0  0  0  0  0
  -18.9923   15.3456  -31.8024 O   0  0  0  0  0  0  0  0  0  0  0  0
  -20.2686   14.8065  -31.6297 C   0  0  1  0  0  0  0  0  0  0  0  0
  -21.3167   15.6785  -32.2903 C   0  0  0  0  0  0  0  0  0  0  0  0
  -21.7760   15.1269  -33.5400 N   0  0  0  0  0  4  0  0  0  0  0  0
  -22.3296   16.1473  -34.3524 C   0  0  0  0  0  0  0  0  0  0  0  0
  -23.7818   16.4212  -34.2800 C   0  0  0  0  0  0  0  0  0  0  0  0
  -24.3194   16.8693  -32.9630 C   0  0  0  0  0  0  0  0  0  0  0  0
  -23.7752   18.0275  -32.4473 O   0  0  0  0  0  0  0  0  0  0  0  0
  -23.7326   19.3113  -32.8260 C   0  0  0  0  0  0  0  0  0  0  0  0
  -24.2991   19.8699  -33.9430 C   0  0  0  0  0  0  0  0  0  0  0  0
  -24.1920   21.2328  -34.2506 C   0  0  0  0  0  0  0  0  0  0  0  0
  -23.4923   22.0674  -33.4081 C   0  0  0  0  0  0  0  0  0  0  0  0
  -22.9137   21.5366  -32.2802 C   0  0  0  0  0  0  0  0  0  0  0  0
  -23.0281   20.2002  -31.9943 C   0  0  0  0  0  0  0  0  0  0  0  0
  -22.5397   13.9284  -33.3988 C   0  0  0  0  0  0  0  0  0  0  0  0
  -21.9199   13.1360  -32.2459 C   0  0  0  0  0  0  0  0  0  0  0  0
  -20.4203   13.4159  -32.1816 C   0  0  0  0  0  0  0  0  0  0  0  0
  -19.9392   13.4691  -33.6163 C   0  0  0  0  0  0  0  0  0  0  0  0
  -20.5378   14.6859  -34.2523 C   0  0  0  0  0  0  0  0  0  0  0  0
  -16.8303   16.2493  -30.9960 C   0  0  0  0  0  0  0  0  0  0  0  0
  -16.5903   16.3405  -32.3516 O   0  0  0  0  0  0  0  0  0  0  0  0
  -16.7541   17.5904  -30.4026 C   0  0  0  0  0  0  0  0  0  0  0  0
  -17.5183   18.2590  -29.5333 C   0  0  0  0  0  0  0  0  0  0  0  0
  -17.1850   19.5076  -29.1683 C   0  0  0  0  0  0  0  0  0  0  0  0
  -16.0658   20.0756  -29.6940 C   0  0  0  0  0  0  0  0  0  0  0  0
  -15.4699   18.7145  -30.7777 S   0  0  0  0  0  0  0  0  0  0  0  0
  -15.7373   15.4356  -30.3611 C   0  0  0  0  0  0  0  0  0  0  0  0
  -15.5836   15.0347  -29.0677 C   0  0  0  0  0  0  0  0  0  0  0  0
  -14.5198   14.3131  -28.7357 C   0  0  0  0  0  0  0  0  0  0  0  0
  -13.5889   13.9641  -29.6291 C   0  0  0  0  0  0  0  0  0  0  0  0
  -14.3067   14.7635  -31.1652 S   0  0  0  0  0  0  0  0  0  0  0  0
  -20.2544   16.5921  -32.0574 Br  0  0  0  0  0 15  0  0  0  0  0  0
  1  2  2  0
  2  3  1  0
  4  3  1  6
  4  5  1  0
  5  6  1  0
  6  7  1  0
  7  8  1  0
  8  9  1  0
  9 10  1  0
 10 11  1  0
 11 12  2  0
 12 13  1  0
 13 14  2  0
 14 15  1  0
 15 16  2  0
  6 17  1  0
 17 18  1  0
 18 19  1  0
 19 20  1  0
 20 21  1  0
  2 22  1  0
 22 23  1  0
 22 24  1  0
 24 25  2  0
 25 26  1  0
 26 27  2  0
 27 28  1  0
 22 29  1  0
 29 30  2  0
 30 31  1  0
 31 32  2  0
 32 33  1  0
 19  4  1  0
 28 24  1  0
 33 29  1  0
 21  6  1  0
 16 11  1  0
M  CHG  2   6   1  34  -1
M  END
$$$$
