
     RDKit          3D

 30 33  0  0  0  0  0  0  0  0999 V2000
  -23.4372   -1.0224  -31.4100 C   0  0  0  0  0  0  0  0  0  0  0  0
  -22.5459   -0.0112  -31.7670 O   0  0  0  0  0  0  0  0  0  0  0  0
  -21.1988   -0.1914  -31.9198 C   0  0  0  0  0  0  0  0  0  0  0  0
  -20.5660   -1.3008  -31.4002 C   0  0  0  0  0  0  0  0  0  0  0  0
  -19.2038   -1.4749  -31.5591 C   0  0  0  0  0  0  0  0  0  0  0  0
  -18.6014   -2.5753  -31.0542 N   0  0  0  0  0  0  0  0  0  0  0  0
  -17.2781   -2.8174  -31.1814 C   0  0  0  0  0  0  0  0  0  0  0  0
  -16.5267   -1.8932  -31.8561 C   0  0  0  0  0  0  0  0  0  0  0  0
  -17.1122   -0.7753  -32.3734 C   0  0  0  0  0  0  0  0  0  0  0  0
  -16.3470    0.1528  -33.0525 O   0  0  0  0  0  0  0  0  0  0  0  0
  -14.9666    0.0572  -32.9658 C   0  0  0  0  0  0  0  0  0  0  0  0
  -14.2248   -0.8480  -33.7265 C   0  0  0  0  0  0  0  0  0  0  0  0
  -12.8590   -0.9528  -33.6494 C   0  0  0  0  0  0  0  0  0  0  0  0
  -12.1565   -0.1414  -32.7912 C   0  0  0  0  0  0  0  0  0  0  0  0
  -10.7355   -0.2054  -32.6670 N   0  0  0  0  0  0  0  0  0  0  0  0
   -9.8833   -0.2387  -33.7897 C   0  0  0  0  0  0  0  0  0  0  0  0
  -10.3889   -0.4810  -34.9101 O   0  0  0  0  0  0  0  0  0  0  0  0
   -8.4880   -0.0151  -33.7335 N   0  0  0  0  0  0  0  0  0  0  0  0
   -7.5963   -0.5621  -34.7445 C   0  0  0  0  0  0  0  0  0  0  0  0
   -7.6184   -2.0422  -35.0218 C   0  0  0  0  0  0  0  0  0  0  0  0
   -6.4225   -1.3578  -34.3708 C   0  0  0  0  0  0  0  0  0  0  0  0
  -12.8590    0.7647  -32.0244 C   0  0  0  0  0  0  0  0  0  0  0  0
  -12.0165    1.8373  -30.9012 Cl  0  0  0  0  0  0  0  0  0  0  0  0
  -14.2369    0.8693  -32.1033 C   0  0  0  0  0  0  0  0  0  0  0  0
  -18.4672   -0.5420  -32.2369 C   0  0  0  0  0  0  0  0  0  0  0  0
  -19.1188    0.5533  -32.7459 C   0  0  0  0  0  0  0  0  0  0  0  0
  -20.4695    0.7545  -32.6048 C   0  0  0  0  0  0  0  0  0  0  0  0
  -21.1455    1.9284  -33.1544 C   0  0  0  0  0  0  0  0  0  0  0  0
  -22.5510    2.0567  -33.1441 N   0  0  0  0  0  0  0  0  0  0  0  0
  -20.4459    2.8365  -33.6441 O   0  0  0  0  0  0  0  0  0  0  0  0
  1  2  1  0
  2  3  1  0
  3  4  2  0
  4  5  1  0
  5  6  2  0
  6  7  1  0
  7  8  2  0
  8  9  1  0
  9 10  1  0
 10 11  1  0
 11 12  2  0
 12 13  1  0
 13 14  2  0
 14 15  1  0
 15 16  1  0
 16 17  2  0
 16 18  1  0
 18 19  1  0
 19 20  1  0
 20 21  1  0
 14 22  1  0
 22 23  1  0
 22 24  2  0
  9 25  2  0
 25 26  1  0
 26 27  2  0
 27 28  1  0
 28 29  1  0
 28 30  2  0
 27  3  1  0
 25  5  1  0
 24 11  1  0
 21 19  1  0
M  END
$$$$
