
     RDKit          3D

 27 29  0  0  0  0  0  0  0  0999 V2000
  -18.8969   39.3844  -25.3999 C   0  0  0  0  0  0  0  0  0  0  0  0
  -20.1023   38.5963  -25.6893 C   0  0  0  0  0  0  0  0  0  0  0  0
  -21.2356   38.9579  -25.2438 O   0  0  0  0  0  0  0  0  0  0  0  0
  -20.1006   37.4258  -26.4517 O   0  0  0  0  0  0  0  0  0  0  0  0
  -21.2508   36.6685  -26.6150 C   0  0  0  0  0  0  0  0  0  0  0  0
  -22.4926   37.2592  -26.5370 C   0  0  0  0  0  0  0  0  0  0  0  0
  -23.6534   36.5345  -26.6949 C   0  0  0  0  0  0  0  0  0  0  0  0
  -23.6434   35.1746  -26.9405 C   0  0  0  0  0  0  0  0  0  0  0  0
  -24.8978   34.3775  -27.0974 C   0  0  0  0  0  0  0  0  0  0  0  0
  -24.6639   33.0198  -27.6350 C   0  0  0  0  0  0  0  0  0  0  0  0
  -25.0382   32.6767  -28.9400 C   0  0  0  0  0  0  0  0  0  0  0  0
  -24.8330   31.4235  -29.4722 C   0  0  0  0  0  0  0  0  0  0  0  0
  -24.2298   30.4379  -28.7013 C   0  0  0  0  0  0  0  0  0  0  0  0
  -24.0548   29.1986  -29.3027 O   0  0  0  0  0  0  0  0  0  0  0  0
  -22.9567   28.3850  -29.0736 C   0  0  0  0  0  0  0  0  0  0  0  0
  -22.7191   27.1219  -29.8158 C   0  0  0  0  0  0  0  0  0  0  0  0
  -22.1384   28.7683  -28.1821 O   0  0  0  0  0  0  0  0  0  0  0  0
  -23.8559   30.7441  -27.4294 C   0  0  0  0  0  0  0  0  0  0  0  0
  -24.0719   32.0184  -26.9081 C   0  0  0  0  0  0  0  0  0  0  0  0
  -26.0212   35.1109  -27.6678 C   0  0  0  0  0  0  0  0  0  0  0  0
  -27.2134   35.4071  -27.0590 C   0  0  0  0  0  0  0  0  0  0  0  0
  -28.2312   36.1276  -27.6683 C   0  0  0  0  0  0  0  0  0  0  0  0
  -28.0703   36.5846  -28.9514 C   0  0  0  0  0  0  0  0  0  0  0  0
  -26.8670   36.2832  -29.5611 C   0  0  0  0  0  0  0  0  0  0  0  0
  -25.9093   35.5874  -28.9442 N   0  0  0  0  0  0  0  0  0  0  0  0
  -22.3976   34.5779  -27.0190 C   0  0  0  0  0  0  0  0  0  0  0  0
  -21.2432   35.3134  -26.8596 C   0  0  0  0  0  0  0  0  0  0  0  0
  1  2  1  0
  2  3  2  0
  2  4  1  0
  4  5  1  0
  5  6  2  0
  6  7  1  0
  7  8  2  0
  8  9  1  0
  9 10  1  0
 10 11  2  0
 11 12  1  0
 12 13  2  0
 13 14  1  0
 14 15  1  0
 15 16  1  0
 15 17  2  0
 13 18  1  0
 18 19  2  0
  9 20  1  0
 20 21  2  0
 21 22  1  0
 22 23  2  0
 23 24  1  0
 24 25  2  0
  8 26  1  0
 26 27  2  0
 27  5  1  0
 19 10  1  0
 25 20  1  0
M  END
$$$$
