
     RDKit          3D

 14 16  0  0  0  0  0  0  0  0999 V2000
  -17.9492   37.9495  -22.7854 C   0  0  0  0  0  0  0  0  0  0  0  0
  -19.1187   37.8180  -21.8584 C   0  0  2  0  0  0  0  0  0  0  0  0
  -18.7049   37.5470  -20.4793 C   0  0  0  0  0  0  0  0  0  0  0  0
  -17.9236   38.2499  -19.7801 O   0  0  0  0  0  0  0  0  0  0  0  0
  -19.3116   36.3622  -20.0201 O   0  0  0  0  0  0  0  0  0  0  0  0
  -20.3116   35.9769  -20.9002 C   0  0  0  0  0  0  0  0  0  0  0  0
  -21.2824   35.2048  -20.7381 O   0  0  0  0  0  0  0  0  0  0  0  0
  -20.0319   36.6810  -22.1771 C   0  0  2  0  0  0  0  0  0  0  0  0
  -19.4931   35.6942  -23.1490 C   0  0  0  0  0  0  0  0  0  0  0  0
  -21.2858   37.3719  -22.6147 C   0  0  2  0  0  0  0  0  0  0  0  0
  -21.1021   38.1574  -23.8922 C   0  0  0  0  0  0  0  0  0  0  0  0
  -20.2735   39.3512  -23.4089 C   0  0  0  0  0  0  0  0  0  0  0  0
  -20.0675   39.0053  -21.9683 C   0  0  1  0  0  0  0  0  0  0  0  0
  -21.3260   38.4269  -21.6689 O   0  0  0  0  0  0  0  0  0  0  0  0
  2  1  1  6
  2  3  1  0
  3  4  2  0
  3  5  1  0
  5  6  1  0
  6  7  2  0
  6  8  1  0
  8  9  1  6
  8 10  1  0
 10 11  1  6
 11 12  1  0
 13 12  1  6
 13 14  1  0
  8  2  1  0
 14 10  1  0
 13  2  1  0
M  END
$$$$
