
     RDKit          3D

 31 36  0  0  0  0  0  0  0  0999 V2000
  -23.0155   37.1271  -20.8196 C   0  0  0  0  0  0  0  0  0  0  0  0
  -21.7763   37.7102  -20.9171 C   0  0  0  0  0  0  0  0  0  0  0  0
  -20.9927   37.6187  -22.0485 C   0  0  0  0  0  0  0  0  0  0  0  0
  -19.6754   38.2357  -22.1560 C   0  0  0  0  0  0  0  0  0  0  0  0
  -18.5301   37.7530  -22.7654 C   0  0  0  0  0  0  0  0  0  0  0  0
  -17.5481   38.6608  -22.6169 N   0  0  0  0  0  0  0  0  0  0  0  0
  -18.0096   39.7109  -21.9369 N   0  0  0  0  0  0  0  0  0  0  0  0
  -17.4766   40.8765  -21.5156 C   0  0  0  0  0  0  0  0  0  0  0  0
  -18.1813   41.8208  -20.8130 C   0  0  0  0  0  0  0  0  0  0  0  0
  -17.5382   43.0438  -20.3971 C   0  0  0  0  0  0  0  0  0  0  0  0
  -16.1751   43.1949  -20.4958 C   0  0  0  0  0  0  0  0  0  0  0  0
  -15.5102   44.3376  -20.1158 C   0  0  0  0  0  0  0  0  0  0  0  0
  -16.2193   45.3961  -19.6091 C   0  0  0  0  0  0  0  0  0  0  0  0
  -15.5536   46.5861  -19.2100 N   0  0  0  0  0  0  0  0  0  0  0  0
  -14.1574   46.7259  -19.5078 C   0  0  0  0  0  0  0  0  0  0  0  0
  -13.4732   47.8782  -18.8584 C   0  0  0  0  0  0  0  0  0  0  0  0
  -14.1661   48.4204  -17.7286 N   0  0  0  0  0  0  0  0  0  0  0  0
  -15.5099   48.7937  -18.1340 C   0  0  0  0  0  0  0  0  0  0  0  0
  -16.3290   47.6013  -18.5181 C   0  0  0  0  0  0  0  0  0  0  0  0
  -17.6035   45.2858  -19.4917 C   0  0  0  0  0  0  0  0  0  0  0  0
  -18.2395   44.1285  -19.8809 C   0  0  0  0  0  0  0  0  0  0  0  0
  -19.5161   41.5402  -20.5308 C   0  0  0  0  0  0  0  0  0  0  0  0
  -20.0481   40.3752  -20.9521 N   0  0  0  0  0  0  0  0  0  0  0  0
  -19.3144   39.4703  -21.6440 C   0  0  0  0  0  0  0  0  0  0  0  0
  -21.4895   36.9096  -23.1146 C   0  0  0  0  0  0  0  0  0  0  0  0
  -20.7403   36.7928  -24.2662 C   0  0  0  0  0  0  0  0  0  0  0  0
  -21.2690   36.0749  -25.3165 C   0  0  0  0  0  0  0  0  0  0  0  0
  -22.5247   35.4869  -25.2110 C   0  0  0  0  0  0  0  0  0  0  0  0
  -23.2296   35.6208  -24.0714 N   0  0  0  0  0  0  0  0  0  0  0  0
  -22.7322   36.3182  -23.0322 C   0  0  0  0  0  0  0  0  0  0  0  0
  -23.5018   36.4176  -21.8987 C   0  0  0  0  0  0  0  0  0  0  0  0
  1  2  2  0
  2  3  1  0
  3  4  1  0
  4  5  1  0
  5  6  2  0
  6  7  1  0
  7  8  1  0
  8  9  2  0
  9 10  1  0
 10 11  2  0
 11 12  1  0
 12 13  2  0
 13 14  1  0
 14 15  1  0
 15 16  1  0
 16 17  1  0
 17 18  1  0
 18 19  1  0
 13 20  1  0
 20 21  2  0
  9 22  1  0
 22 23  2  0
 23 24  1  0
  3 25  2  0
 25 26  1  0
 26 27  2  0
 27 28  1  0
 28 29  2  0
 29 30  1  0
 30 31  2  0
 31  1  1  0
 24  4  2  0
 30 25  1  0
 24  7  1  0
 21 10  1  0
 19 14  1  0
M  END
$$$$
