
     RDKit          3D

 12 12  0  0  0  0  0  0  0  0999 V2000
  -27.1154   11.9401  -22.2180 Cl  0  0  0  0  0  0  0  0  0  0  0  0
  -28.1336   13.0487  -21.2714 C   0  0  1  0  0  0  0  0  0  0  0  0
  -27.3217   14.2769  -20.8915 C   0  0  2  0  0  0  0  0  0  0  0  0
  -28.3972   15.4756  -20.1687 Cl  0  0  0  0  0  0  0  0  0  0  0  0
  -26.6976   14.7997  -22.1623 C   0  0  2  0  0  0  0  0  0  0  0  0
  -25.7153   16.2337  -21.8216 Cl  0  0  0  0  0  0  0  0  0  0  0  0
  -27.7223   15.1458  -23.1949 C   0  0  1  0  0  0  0  0  0  0  0  0
  -26.8884   15.4138  -24.7458 Cl  0  0  0  0  0  0  0  0  0  0  0  0
  -28.7493   14.0723  -23.4143 C   0  0  2  0  0  0  0  0  0  0  0  0
  -30.1316   14.8365  -24.2645 Cl  0  0  0  0  0  0  0  0  0  0  0  0
  -29.2848   13.5115  -22.1272 C   0  0  1  0  0  0  0  0  0  0  0  0
  -30.3707   12.1525  -22.5174 Cl  0  0  0  0  0  0  0  0  0  0  0  0
  2  1  1  6
  2  3  1  0
  3  4  1  6
  3  5  1  0
  5  6  1  1
  5  7  1  0
  7  8  1  6
  7  9  1  0
  9 10  1  1
  9 11  1  0
 11 12  1  6
 11  2  1  0
M  END
$$$$
