
     RDKit          3D

 25 28  0  0  0  0  0  0  0  0999 V2000
   -9.0336   16.1463  -43.7401 N   0  0  0  0  0  0  0  0  0  0  0  0
   -9.2608   17.5489  -44.0153 C   0  0  0  0  0  0  0  0  0  0  0  0
   -8.7332   18.4438  -42.9437 C   0  0  0  0  0  0  0  0  0  0  0  0
   -9.8748   18.7572  -42.0216 C   0  0  0  0  0  0  0  0  0  0  0  0
  -11.0558   18.4842  -42.7347 N   0  0  0  0  0  0  0  0  0  0  0  0
  -12.4401   18.7276  -42.3887 C   0  0  0  0  0  0  0  0  0  0  0  0
  -13.3339   19.3029  -43.2619 C   0  0  0  0  0  0  0  0  0  0  0  0
  -12.9138   19.6833  -44.4932 F   0  0  0  0  0  0  0  0  0  0  0  0
  -14.6546   19.5217  -42.9418 C   0  0  0  0  0  0  0  0  0  0  0  0
  -15.1400   19.1697  -41.7217 C   0  0  0  0  0  0  0  0  0  0  0  0
  -16.4745   19.4145  -41.4292 C   0  0  0  0  0  0  0  0  0  0  0  0
  -17.2024   19.9453  -42.2984 O   0  0  0  0  0  0  0  0  0  0  0  0
  -16.9059   19.0488  -40.1828 C   0  0  0  0  0  0  0  0  0  0  0  0
  -18.2874   19.2827  -39.8265 C   0  0  0  0  0  0  0  0  0  0  0  0
  -18.6785   18.9974  -38.6727 O   0  0  0  0  0  0  0  0  0  0  0  0
  -19.2225   19.8124  -40.6983 O   0  0  0  0  0  0  0  0  0  0  0  0
  -16.0283   18.4656  -39.2842 C   0  0  0  0  0  0  0  0  0  0  0  0
  -14.7305   18.2301  -39.5791 N   0  0  0  0  0  0  0  0  0  0  0  0
  -13.9199   17.5885  -38.5590 C   0  0  0  0  0  0  0  0  0  0  0  0
  -14.6871   16.5599  -37.7011 C   0  0  0  0  0  0  0  0  0  0  0  0
  -13.5698   16.1638  -38.5895 C   0  0  0  0  0  0  0  0  0  0  0  0
  -14.2701   18.5796  -40.7971 C   0  0  0  0  0  0  0  0  0  0  0  0
  -12.9493   18.3679  -41.1328 C   0  0  0  0  0  0  0  0  0  0  0  0
  -11.8826   17.6594  -39.9729 Cl  0  0  0  0  0  0  0  0  0  0  0  0
  -10.7143   17.8449  -43.9751 C   0  0  0  0  0  0  0  0  0  0  0  0
  1  2  1  0
  2  3  1  0
  3  4  1  0
  4  5  1  0
  5  6  1  0
  6  7  2  0
  7  8  1  0
  7  9  1  0
  9 10  2  0
 10 11  1  0
 11 12  2  0
 11 13  1  0
 13 14  1  0
 14 15  2  0
 14 16  1  0
 13 17  2  0
 17 18  1  0
 18 19  1  0
 19 20  1  0
 20 21  1  0
 18 22  1  0
 22 23  2  0
 23 24  1  0
  5 25  1  0
 25  2  1  0
 23  6  1  0
 22 10  1  0
 21 19  1  0
M  END
$$$$
