
     RDKit          3D

 10  9  0  0  0  0  0  0  0  0999 V2000
  -33.3201   11.9514  -17.6681 N   0  0  0  0  0  0  0  0  0  0  0  0
  -32.9712   11.7530  -19.0849 C   0  0  0  0  0  0  0  0  0  0  0  0
  -31.7754   12.6223  -19.3580 C   0  0  0  0  0  0  0  0  0  0  0  0
  -31.2047   12.4794  -20.7303 C   0  0  0  0  0  0  0  0  0  0  0  0
  -30.0128   13.3310  -20.9812 C   0  0  0  0  0  0  0  0  0  0  0  0
  -30.2307   14.3594  -21.9666 N   0  0  0  0  0  0  0  0  0  0  0  0
  -29.0401   14.7668  -22.6552 C   0  0  0  0  0  0  0  0  0  0  0  0
  -28.4661   16.0337  -22.1308 C   0  0  0  0  0  0  0  0  0  0  0  0
  -28.1769   17.0563  -23.1925 C   0  0  0  0  0  0  0  0  0  0  0  0
  -27.5858   18.2588  -22.6476 N   0  0  0  0  0  0  0  0  0  0  0  0
  1  2  1  0
  2  3  1  0
  3  4  1  0
  4  5  1  0
  5  6  1  0
  6  7  1  0
  7  8  1  0
  8  9  1  0
  9 10  1  0
M  END
$$$$
