
     RDKit          3D

 23 25  0  0  0  0  0  0  0  0999 V2000
  -25.8544   12.5021  -27.9501 C   0  0  0  0  0  0  0  0  0  0  0  0
  -26.6514   12.8162  -26.7965 N   0  0  0  0  0  0  0  0  0  0  0  0
  -26.2120   14.0711  -26.2635 C   0  0  0  0  0  0  0  0  0  0  0  0
  -26.7258   14.2830  -24.8399 C   0  0  0  0  0  0  0  0  0  0  0  0
  -26.0891   13.2654  -24.0265 N   0  0  0  0  0  0  0  0  0  0  0  0
  -25.6573   13.5291  -22.7066 C   0  0  0  0  0  0  0  0  0  0  0  0
  -26.0491   12.8494  -21.6435 C   0  0  0  0  0  0  0  0  0  0  0  0
  -27.1608   11.5011  -21.6050 Cl  0  0  0  0  0  0  0  0  0  0  0  0
  -25.3979   13.4053  -20.4645 C   0  0  0  0  0  0  0  0  0  0  0  0
  -25.5233   13.0214  -19.2708 O   0  0  0  0  0  0  0  0  0  0  0  0
  -24.5549   14.5022  -20.8761 N   0  0  0  0  0  0  0  0  0  0  0  0
  -23.7484   15.3098  -20.0279 C   0  0  0  0  0  0  0  0  0  0  0  0
  -24.3317   16.1385  -19.0929 C   0  0  0  0  0  0  0  0  0  0  0  0
  -23.6158   16.9435  -18.2434 C   0  0  0  0  0  0  0  0  0  0  0  0
  -22.2365   16.9409  -18.3096 C   0  0  0  0  0  0  0  0  0  0  0  0
  -21.2761   17.9550  -17.2422 Cl  0  0  0  0  0  0  0  0  0  0  0  0
  -21.6311   16.1125  -19.2454 C   0  0  0  0  0  0  0  0  0  0  0  0
  -19.8695   16.1201  -19.3180 Cl  0  0  0  0  0  0  0  0  0  0  0  0
  -22.3723   15.3110  -20.0899 C   0  0  0  0  0  0  0  0  0  0  0  0
  -24.7187   14.5812  -22.2956 C   0  0  0  0  0  0  0  0  0  0  0  0
  -24.1293   15.4318  -23.0122 O   0  0  0  0  0  0  0  0  0  0  0  0
  -25.9078   11.9618  -24.6114 C   0  0  0  0  0  0  0  0  0  0  0  0
  -26.7545   11.7605  -25.8453 C   0  0  0  0  0  0  0  0  0  0  0  0
  1  2  1  0
  2  3  1  0
  3  4  1  0
  4  5  1  0
  5  6  1  0
  6  7  2  0
  7  8  1  0
  7  9  1  0
  9 10  2  0
  9 11  1  0
 11 12  1  0
 12 13  2  0
 13 14  1  0
 14 15  2  0
 15 16  1  0
 15 17  1  0
 17 18  1  0
 17 19  2  0
 11 20  1  0
 20 21  2  0
  5 22  1  0
 22 23  1  0
 23  2  1  0
 20  6  1  0
 19 12  1  0
M  END
$$$$
