
     RDKit          3D

 25 27  0  0  0  0  0  0  0  0999 V2000
  -23.0312   22.8346  -40.0994 O   0  0  0  0  0  0  0  0  0  0  0  0
  -22.5820   23.5731  -39.1924 C   0  0  0  0  0  0  0  0  0  0  0  0
  -23.0922   23.4452  -37.8758 N   0  0  0  0  0  0  0  0  0  0  0  0
  -24.0457   22.4399  -37.4865 C   0  0  0  0  0  0  0  0  0  0  0  0
  -25.4110   22.9876  -37.2898 C   0  0  0  0  0  0  0  0  0  0  0  0
  -26.4110   22.5926  -38.1738 C   0  0  0  0  0  0  0  0  0  0  0  0
  -27.7113   23.0639  -38.0548 C   0  0  0  0  0  0  0  0  0  0  0  0
  -28.0631   23.9443  -37.0532 C   0  0  0  0  0  0  0  0  0  0  0  0
  -29.4702   24.4500  -36.9253 C   0  0  0  0  0  0  0  0  0  0  0  0
  -29.4538   25.7968  -37.2638 F   0  0  0  0  0  0  0  0  0  0  0  0
  -29.9203   24.3395  -35.6275 F   0  0  0  0  0  0  0  0  0  0  0  0
  -30.3245   23.8161  -37.7833 F   0  0  0  0  0  0  0  0  0  0  0  0
  -27.0771   24.3377  -36.1772 C   0  0  0  0  0  0  0  0  0  0  0  0
  -25.7720   23.8665  -36.2943 C   0  0  0  0  0  0  0  0  0  0  0  0
  -21.5802   24.4975  -39.5591 N   0  0  0  0  0  0  0  0  0  0  0  0
  -21.1319   24.6782  -40.8945 C   0  0  0  0  0  0  0  0  0  0  0  0
  -20.6819   23.6400  -41.6841 C   0  0  0  0  0  0  0  0  0  0  0  0
  -20.2503   23.8485  -42.9882 C   0  0  0  0  0  0  0  0  0  0  0  0
  -20.2576   25.0954  -43.5341 C   0  0  0  0  0  0  0  0  0  0  0  0
  -20.7050   26.1687  -42.7674 C   0  0  0  0  0  0  0  0  0  0  0  0
  -20.7109   27.4249  -43.3316 C   0  0  0  0  0  0  0  0  0  0  0  0
  -21.1551   28.4492  -42.5630 N   0  0  0  0  0  0  0  0  0  0  0  0
  -21.5758   28.2614  -41.2999 C   0  0  0  0  0  0  0  0  0  0  0  0
  -21.5799   27.0049  -40.7075 C   0  0  0  0  0  0  0  0  0  0  0  0
  -21.1289   25.9429  -41.4775 C   0  0  0  0  0  0  0  0  0  0  0  0
  1  2  2  0
  2  3  1  0
  3  4  1  0
  4  5  1  0
  5  6  2  0
  6  7  1  0
  7  8  2  0
  8  9  1  0
  9 10  1  0
  9 11  1  0
  9 12  1  0
  8 13  1  0
 13 14  2  0
  2 15  1  0
 15 16  1  0
 16 17  2  0
 17 18  1  0
 18 19  2  0
 19 20  1  0
 20 21  2  0
 21 22  1  0
 22 23  2  0
 23 24  1  0
 24 25  2  0
 14  5  1  0
 25 16  1  0
 25 20  1  0
M  END
$$$$
