
     RDKit          3D

 44 48  0  0  0  0  0  0  0  0999 V2000
  -18.5547   32.4225  -19.0557 C   0  0  0  0  0  0  0  0  0  0  0  0
  -18.8117   33.7759  -19.1443 O   0  0  0  0  0  0  0  0  0  0  0  0
  -18.4324   34.3095  -20.3029 N   0  0  0  0  0  0  0  0  0  0  0  0
  -18.6311   35.6982  -20.5322 C   0  0  0  0  0  0  0  0  0  0  0  0
  -18.8329   36.5100  -19.5838 O   0  0  0  0  0  0  0  0  0  0  0  0
  -18.6018   36.1818  -21.8685 N   0  0  0  0  0  0  0  0  0  0  0  0
  -18.5227   37.5845  -22.1018 C   0  0  0  0  0  0  0  0  0  0  0  0
  -17.6931   38.0663  -23.0766 C   0  0  0  0  0  0  0  0  0  0  0  0
  -17.6403   39.4475  -23.2784 C   0  0  0  0  0  0  0  0  0  0  0  0
  -18.3585   40.3631  -22.5711 C   0  0  0  0  0  0  0  0  0  0  0  0
  -18.3576   41.8023  -22.7257 C   0  0  0  0  0  0  0  0  0  0  0  0
  -18.8726   42.5377  -24.3363 S   0  0  0  0  0  0  0  0  0  0  0  0
  -18.6380   44.1894  -23.8632 C   0  0  0  0  0  0  0  0  0  0  0  0
  -18.2059   44.1298  -22.5799 C   0  0  0  0  0  0  0  0  0  0  0  0
  -18.0685   42.8956  -22.0154 C   0  0  0  0  0  0  0  0  0  0  0  0
  -17.5938   42.7358  -20.5680 C   0  0  0  0  0  0  0  0  0  0  0  0
  -18.3039   41.7009  -19.8901 N   0  0  0  0  0  0  0  0  0  0  0  0
  -19.5678   42.1873  -19.4353 C   0  0  0  0  0  0  0  0  0  0  0  0
  -17.5030   41.1927  -18.8000 C   0  0  0  0  0  0  0  0  0  0  0  0
  -17.9905   45.3993  -21.9988 C   0  0  0  0  0  0  0  0  0  0  0  0
  -17.5887   45.5863  -20.8311 O   0  0  0  0  0  0  0  0  0  0  0  0
  -18.2161   46.5062  -22.7040 N   0  0  0  0  0  0  0  0  0  0  0  0
  -17.9906   47.8058  -22.1056 C   0  0  0  0  0  0  0  0  0  0  0  0
  -17.8087   47.9521  -20.7493 C   0  0  0  0  0  0  0  0  0  0  0  0
  -17.5965   49.1910  -20.1793 C   0  0  0  0  0  0  0  0  0  0  0  0
  -17.5635   50.3211  -20.9774 C   0  0  0  0  0  0  0  0  0  0  0  0
  -17.3517   51.5865  -20.4337 O   0  0  0  0  0  0  0  0  0  0  0  0
  -17.6844   52.7623  -21.1332 C   0  0  0  0  0  0  0  0  0  0  0  0
  -17.7482   50.1147  -22.2996 N   0  0  0  0  0  0  0  0  0  0  0  0
  -17.9509   48.9278  -22.8426 N   0  0  0  0  0  0  0  0  0  0  0  0
  -18.6506   46.5193  -23.9836 C   0  0  0  0  0  0  0  0  0  0  0  0
  -18.8288   47.6187  -24.5291 O   0  0  0  0  0  0  0  0  0  0  0  0
  -18.8710   45.3465  -24.5989 N   0  0  0  0  0  0  0  0  0  0  0  0
  -19.3881   45.2013  -25.9325 C   0  0  0  0  0  0  0  0  0  0  0  0
  -20.6234   44.4084  -26.0066 C   0  0  0  0  0  0  0  0  0  0  0  0
  -21.8170   44.8727  -25.4326 C   0  0  0  0  0  0  0  0  0  0  0  0
  -21.8572   45.9938  -24.6679 F   0  0  0  0  0  0  0  0  0  0  0  0
  -23.0083   44.1677  -25.5397 C   0  0  0  0  0  0  0  0  0  0  0  0
  -23.0793   42.9805  -26.2091 C   0  0  0  0  0  0  0  0  0  0  0  0
  -21.9426   42.4982  -26.7743 C   0  0  0  0  0  0  0  0  0  0  0  0
  -20.7506   43.2037  -26.6680 C   0  0  0  0  0  0  0  0  0  0  0  0
  -19.6597   42.6413  -27.2154 F   0  0  0  0  0  0  0  0  0  0  0  0
  -19.1924   39.8033  -21.5830 C   0  0  0  0  0  0  0  0  0  0  0  0
  -19.2732   38.4526  -21.3536 C   0  0  0  0  0  0  0  0  0  0  0  0
  1  2  1  0
  2  3  1  0
  3  4  1  0
  4  5  2  0
  4  6  1  0
  6  7  1  0
  7  8  2  0
  8  9  1  0
  9 10  2  0
 10 11  1  0
 11 12  1  0
 12 13  1  0
 13 14  2  0
 14 15  1  0
 15 16  1  0
 16 17  1  0
 17 18  1  0
 17 19  1  0
 14 20  1  0
 20 21  2  0
 20 22  1  0
 22 23  1  0
 23 24  2  0
 24 25  1  0
 25 26  2  0
 26 27  1  0
 27 28  1  0
 26 29  1  0
 29 30  2  0
 22 31  1  0
 31 32  2  0
 31 33  1  0
 33 34  1  0
 34 35  1  0
 35 36  2  0
 36 37  1  0
 36 38  1  0
 38 39  2  0
 39 40  1  0
 40 41  2  0
 41 42  1  0
 10 43  1  0
 43 44  2  0
 44  7  1  0
 15 11  2  0
 30 23  1  0
 41 35  1  0
 33 13  1  0
M  END
$$$$
