
     RDKit          3D

 42 46  0  0  0  0  0  0  0  0999 V2000
  -31.5630   23.6449  -36.9731 C   0  0  0  0  0  0  0  0  0  0  0  0
  -30.3067   24.4206  -36.6185 C   0  0  0  0  0  0  0  0  0  0  0  0
  -30.4673   25.0287  -35.2455 C   0  0  0  0  0  0  0  0  0  0  0  0
  -30.1334   25.4638  -37.5974 N   0  0  0  0  0  0  0  0  0  0  0  0
  -29.0137   25.5528  -38.4398 C   0  0  0  0  0  0  0  0  0  0  0  0
  -29.0515   26.2444  -39.4883 O   0  0  0  0  0  0  0  0  0  0  0  0
  -27.7621   24.8349  -38.1141 C   0  0  1  0  0  0  0  0  0  0  0  0
  -26.6650   25.3571  -39.0351 C   0  0  0  0  0  0  0  0  0  0  0  0
  -25.5064   25.8480  -38.1778 C   0  0  0  0  0  0  0  0  0  0  0  0
  -25.0660   24.6326  -37.3564 C   0  0  1  0  0  0  0  0  0  0  0  0
  -23.7607   24.8197  -36.7752 N   0  0  0  0  0  0  0  0  0  0  0  0
  -23.4327   25.6169  -35.7431 C   0  0  0  0  0  0  0  0  0  0  0  0
  -24.3424   26.4496  -35.0147 N   0  0  0  0  0  0  0  0  0  0  0  0
  -24.4097   27.8490  -35.2211 C   0  0  0  0  0  0  0  0  0  0  0  0
  -23.3815   28.3712  -35.7572 O   0  0  0  0  0  0  0  0  0  0  0  0
  -25.5247   28.6973  -34.8776 C   0  0  0  0  0  0  0  0  0  0  0  0
  -25.3317   29.9876  -34.4578 C   0  0  0  0  0  0  0  0  0  0  0  0
  -26.4195   30.8083  -34.1249 C   0  0  0  0  0  0  0  0  0  0  0  0
  -27.6675   30.2851  -34.2315 C   0  0  0  0  0  0  0  0  0  0  0  0
  -28.7164   31.0946  -33.9043 F   0  0  0  0  0  0  0  0  0  0  0  0
  -27.9083   29.0043  -34.6453 C   0  0  0  0  0  0  0  0  0  0  0  0
  -26.8053   28.2163  -34.9681 C   0  0  0  0  0  0  0  0  0  0  0  0
  -22.1286   25.5370  -35.4754 N   0  0  0  0  0  0  0  0  0  0  0  0
  -21.5775   24.6631  -36.3541 C   0  0  0  0  0  0  0  0  0  0  0  0
  -20.2877   24.2007  -36.5433 C   0  0  0  0  0  0  0  0  0  0  0  0
  -20.0204   23.3024  -37.5309 C   0  0  0  0  0  0  0  0  0  0  0  0
  -21.0367   22.8521  -38.3447 C   0  0  0  0  0  0  0  0  0  0  0  0
  -20.7130   21.8876  -39.3954 C   0  0  0  0  0  0  0  0  0  0  0  0
  -20.6063   20.5318  -38.9612 N   0  0  0  0  0  0  0  0  0  0  0  0
  -19.5471   20.2586  -38.0483 C   0  0  0  0  0  0  0  0  0  0  0  0
  -18.2001   20.1111  -38.6409 C   0  0  0  0  0  0  0  0  0  0  0  0
  -18.1403   19.5585  -40.0167 C   0  0  0  0  0  0  0  0  0  0  0  0
  -17.6521   18.1014  -40.0128 C   0  0  0  0  0  0  0  0  0  0  0  0
  -16.4388   18.0367  -39.1057 C   0  0  0  0  0  0  0  0  0  0  0  0
  -17.1774   17.7088  -41.3976 C   0  0  0  0  0  0  0  0  0  0  0  0
  -18.6263   17.2572  -39.5240 O   0  0  0  0  0  0  0  0  0  0  0  0
  -19.3807   19.7196  -40.8272 C   0  0  0  0  0  0  0  0  0  0  0  0
  -20.6628   19.6100  -40.0680 C   0  0  0  0  0  0  0  0  0  0  0  0
  -22.3134   23.3242  -38.1402 C   0  0  0  0  0  0  0  0  0  0  0  0
  -22.6037   24.2279  -37.1528 C   0  0  0  0  0  0  0  0  0  0  0  0
  -26.1249   24.1976  -36.3991 C   0  0  0  0  0  0  0  0  0  0  0  0
  -27.3816   25.0216  -36.6645 C   0  0  0  0  0  0  0  0  0  0  0  0
  1  2  1  0
  2  3  1  0
  2  4  1  0
  4  5  1  0
  5  6  2  0
  7  5  1  6
  7  8  1  0
  8  9  1  0
  9 10  1  0
 10 11  1  1
 11 12  1  0
 12 13  1  0
 13 14  1  0
 14 15  2  0
 14 16  1  0
 16 17  2  0
 17 18  1  0
 18 19  2  0
 19 20  1  0
 19 21  1  0
 21 22  2  0
 12 23  2  0
 23 24  1  0
 24 25  2  0
 25 26  1  0
 26 27  2  0
 27 28  1  0
 28 29  1  0
 29 30  1  0
 30 31  1  0
 31 32  1  0
 32 33  1  0
 33 34  1  0
 33 35  1  0
 33 36  1  0
 32 37  1  0
 37 38  1  0
 27 39  1  0
 39 40  2  0
 10 41  1  0
 41 42  1  0
 42  7  1  0
 40 11  1  0
 22 16  1  0
 40 24  1  0
 38 29  1  0
M  END
$$$$
