
     RDKit          3D

 43 51  0  0  0  0  0  0  0  0999 V2000
  -23.5301   25.7466  -32.9872 C   0  0  0  0  0  0  0  0  0  0  0  0
  -24.5192   25.7155  -32.0186 O   0  0  0  0  0  0  0  0  0  0  0  0
  -25.7768   25.5473  -32.5399 C   0  0  2  0  0  0  0  0  0  0  0  0
  -25.8789   26.2354  -33.8523 C   0  0  2  0  0  0  0  0  0  0  0  0
  -24.9194   26.0035  -34.8605 N   0  0  0  0  0  0  0  0  0  0  0  0
  -23.7782   26.8365  -35.1151 C   0  0  0  0  0  0  0  0  0  0  0  0
  -25.1120   24.8909  -35.7399 C   0  0  0  0  0  0  0  0  0  0  0  0
  -24.1489   24.0988  -35.9895 O   0  0  0  0  0  0  0  0  0  0  0  0
  -26.3668   24.5945  -36.4011 C   0  0  0  0  0  0  0  0  0  0  0  0
  -27.6249   24.7898  -35.9110 C   0  0  0  0  0  0  0  0  0  0  0  0
  -28.7619   24.4828  -36.6712 C   0  0  0  0  0  0  0  0  0  0  0  0
  -28.6340   23.9718  -37.9434 C   0  0  0  0  0  0  0  0  0  0  0  0
  -27.3563   23.7621  -38.4702 C   0  0  0  0  0  0  0  0  0  0  0  0
  -26.2613   24.0744  -37.6958 C   0  0  0  0  0  0  0  0  0  0  0  0
  -25.8272   27.7495  -33.5288 C   0  0  0  0  0  0  0  0  0  0  0  0
  -27.2535   28.0061  -32.9775 C   0  0  1  0  0  0  0  0  0  0  0  0
  -27.7627   26.9302  -32.3695 O   0  0  0  0  0  0  0  0  0  0  0  0
  -26.8996   26.0800  -31.6690 C   0  0  1  0  0  0  0  0  0  0  0  0
  -27.8274   24.8936  -31.3206 C   0  0  0  0  0  0  0  0  0  0  0  0
  -26.4688   26.6749  -30.4189 N   0  0  0  0  0  0  0  0  0  0  0  0
  -26.0740   26.0006  -29.3062 C   0  0  0  0  0  0  0  0  0  0  0  0
  -25.9343   24.6744  -29.0273 C   0  0  0  0  0  0  0  0  0  0  0  0
  -25.5060   24.2448  -27.7635 C   0  0  0  0  0  0  0  0  0  0  0  0
  -25.2088   25.1323  -26.7573 C   0  0  0  0  0  0  0  0  0  0  0  0
  -25.3445   26.4780  -27.0221 C   0  0  0  0  0  0  0  0  0  0  0  0
  -25.7715   26.8970  -28.2803 C   0  0  0  0  0  0  0  0  0  0  0  0
  -25.9896   28.1326  -28.7847 C   0  0  0  0  0  0  0  0  0  0  0  0
  -25.8927   29.4203  -28.2355 C   0  0  0  0  0  0  0  0  0  0  0  0
  -26.2126   30.5379  -28.9720 C   0  0  0  0  0  0  0  0  0  0  0  0
  -26.6323   30.3658  -30.2708 C   0  0  0  0  0  0  0  0  0  0  0  0
  -27.0152   31.2479  -31.2727 C   0  0  0  0  0  0  0  0  0  0  0  0
  -27.1466   32.5976  -31.3778 C   0  0  0  0  0  0  0  0  0  0  0  0
  -27.5757   33.1436  -32.5786 C   0  0  0  0  0  0  0  0  0  0  0  0
  -27.8752   32.3675  -33.6743 C   0  0  0  0  0  0  0  0  0  0  0  0
  -27.7428   31.0023  -33.5691 C   0  0  0  0  0  0  0  0  0  0  0  0
  -27.3170   30.4462  -32.3807 C   0  0  0  0  0  0  0  0  0  0  0  0
  -27.1365   29.1772  -32.0900 N   0  0  0  0  0  0  0  0  0  0  0  0
  -26.7287   29.0944  -30.8246 C   0  0  0  0  0  0  0  0  0  0  0  0
  -26.4045   27.9990  -30.0620 C   0  0  0  0  0  0  0  0  0  0  0  0
  -26.0038   31.7094  -28.1489 C   0  0  0  0  0  0  0  0  0  0  0  0
  -26.1533   32.9265  -28.3690 O   0  0  0  0  0  0  0  0  0  0  0  0
  -25.5388   31.2288  -26.8728 N   0  0  0  0  0  0  0  0  0  0  0  0
  -25.4552   29.7842  -26.8690 C   0  0  0  0  0  0  0  0  0  0  0  0
  1  2  1  0
  3  2  1  1
  3  4  1  0
  4  5  1  6
  5  6  1  0
  5  7  1  0
  7  8  2  0
  7  9  1  0
  9 10  2  0
 10 11  1  0
 11 12  2  0
 12 13  1  0
 13 14  2  0
  4 15  1  0
 16 15  1  1
 16 17  1  0
 17 18  1  0
 18 19  1  1
 18 20  1  0
 20 21  1  0
 21 22  2  0
 22 23  1  0
 23 24  2  0
 24 25  1  0
 25 26  2  0
 26 27  1  0
 27 28  2  0
 28 29  1  0
 29 30  2  0
 30 31  1  0
 31 32  2  0
 32 33  1  0
 33 34  2  0
 34 35  1  0
 35 36  2  0
 36 37  1  0
 37 38  1  0
 38 39  2  0
 29 40  1  0
 40 41  2  0
 40 42  1  0
 42 43  1  0
 18  3  1  0
 39 20  1  0
 14  9  1  0
 37 16  1  0
 26 21  1  0
 39 27  1  0
 43 28  1  0
 38 30  1  0
 36 31  1  0
M  END
$$$$
