
     RDKit          3D

 21 24  0  0  0  0  0  0  0  0999 V2000
  -17.7751   17.9968  -30.0955 O   0  0  0  0  0  0  0  0  0  0  0  0
  -17.7290   16.7655  -30.2806 C   0  0  0  0  0  0  0  0  0  0  0  0
  -16.4531   16.1695  -30.2812 C   0  0  0  0  0  0  0  0  0  0  0  0
  -16.2967   14.8251  -30.4758 C   0  0  0  0  0  0  0  0  0  0  0  0
  -15.0014   14.1753  -30.4833 C   0  0  0  0  0  0  0  0  0  0  0  0
  -13.8360   14.8944  -30.7801 C   0  0  0  0  0  0  0  0  0  0  0  0
  -12.5901   14.3135  -30.7971 C   0  0  0  0  0  0  0  0  0  0  0  0
  -12.4358   12.9769  -30.5178 C   0  0  0  0  0  0  0  0  0  0  0  0
  -13.5540   12.2367  -30.2218 C   0  0  0  0  0  0  0  0  0  0  0  0
  -14.8115   12.8446  -30.2095 C   0  0  0  0  0  0  0  0  0  0  0  0
  -17.3646   14.0920  -30.6638 O   0  0  0  0  0  0  0  0  0  0  0  0
  -18.5843   14.5585  -30.6790 C   0  0  0  0  0  0  0  0  0  0  0  0
  -19.6685   13.7174  -30.8847 C   0  0  0  0  0  0  0  0  0  0  0  0
  -20.9245   14.2592  -30.8910 C   0  0  0  0  0  0  0  0  0  0  0  0
  -21.1693   15.5931  -30.7043 C   0  0  0  0  0  0  0  0  0  0  0  0
  -22.4697   16.0904  -30.7205 C   0  0  0  0  0  0  0  0  0  0  0  0
  -22.6964   17.4215  -30.5330 C   0  0  0  0  0  0  0  0  0  0  0  0
  -21.6325   18.2401  -30.3322 C   0  0  0  0  0  0  0  0  0  0  0  0
  -20.3025   17.7929  -30.3062 C   0  0  0  0  0  0  0  0  0  0  0  0
  -20.0796   16.4576  -30.4946 C   0  0  0  0  0  0  0  0  0  0  0  0
  -18.7939   15.9323  -30.4837 C   0  0  0  0  0  0  0  0  0  0  0  0
  1  2  2  0
  2  3  1  0
  3  4  2  0
  4  5  1  0
  5  6  2  0
  6  7  1  0
  7  8  2  0
  8  9  1  0
  9 10  2  0
  4 11  1  0
 11 12  1  0
 12 13  2  0
 13 14  1  0
 14 15  2  0
 15 16  1  0
 16 17  2  0
 17 18  1  0
 18 19  2  0
 19 20  1  0
 20 21  2  0
 21  2  1  0
 10  5  1  0
 21 12  1  0
 20 15  1  0
M  END
$$$$
