
     RDKit          3D

 33 38  0  0  0  0  0  0  0  0999 V2000
  -22.8314   16.8121  -33.4172 N   0  0  0  0  0  0  0  0  0  0  0  0
  -22.3836   17.9660  -34.1266 C   0  0  0  0  0  0  0  0  0  0  0  0
  -23.3494   18.6961  -34.7591 N   0  0  0  0  0  0  0  0  0  0  0  0
  -23.0870   19.7962  -35.4597 C   0  0  0  0  0  0  0  0  0  0  0  0
  -21.7819   20.2133  -35.5483 C   0  0  0  0  0  0  0  0  0  0  0  0
  -20.7843   19.4686  -34.9013 C   0  0  0  0  0  0  0  0  0  0  0  0
  -21.0624   18.3460  -34.1879 C   0  0  0  0  0  0  0  0  0  0  0  0
  -20.0580   17.5528  -33.5074 C   0  0  0  0  0  0  0  0  0  0  0  0
  -20.2320   17.1843  -32.1888 N   0  0  0  0  0  0  0  0  0  0  0  0
  -19.1890   16.4631  -31.7731 C   0  0  0  0  0  0  0  0  0  0  0  0
  -18.8892   15.8734  -30.5676 C   0  0  0  0  0  0  0  0  0  0  0  0
  -17.6957   15.1874  -30.4871 C   0  0  0  0  0  0  0  0  0  0  0  0
  -16.8483   15.1008  -31.5671 C   0  0  0  0  0  0  0  0  0  0  0  0
  -15.5780   14.3896  -31.5349 C   0  0  0  0  0  0  0  0  0  0  0  0
  -14.5882   14.6900  -32.4617 C   0  0  0  0  0  0  0  0  0  0  0  0
  -13.3812   14.0294  -32.4480 C   0  0  0  0  0  0  0  0  0  0  0  0
  -13.1192   13.0522  -31.5164 C   0  0  0  0  0  0  0  0  0  0  0  0
  -14.0862   12.7436  -30.5941 C   0  0  0  0  0  0  0  0  0  0  0  0
  -15.3012   13.4088  -30.6081 C   0  0  0  0  0  0  0  0  0  0  0  0
  -17.2177   15.7098  -32.7183 N   0  0  0  0  0  0  0  0  0  0  0  0
  -18.3582   16.3900  -32.8653 C   0  0  0  0  0  0  0  0  0  0  0  0
  -18.8958   17.0564  -33.9162 N   0  0  0  0  0  0  0  0  0  0  0  0
  -18.2767   17.1638  -35.1903 C   0  0  0  0  0  0  0  0  0  0  0  0
  -17.0923   17.8936  -35.3595 C   0  0  0  0  0  0  0  0  0  0  0  0
  -16.5053   18.0227  -36.5804 C   0  0  0  0  0  0  0  0  0  0  0  0
  -17.0456   17.4392  -37.7277 C   0  0  0  0  0  0  0  0  0  0  0  0
  -16.3221   17.6489  -38.9830 C   0  0  0  0  0  0  0  0  0  0  0  0
  -14.9437   17.1673  -38.9720 N   0  0  0  0  0  0  0  0  0  0  0  0
  -17.0214   17.3845  -40.2669 C   0  0  0  0  0  0  0  0  0  0  0  0
  -16.4702   18.7183  -40.7767 C   0  0  0  0  0  0  0  0  0  0  0  0
  -16.2903   19.1437  -39.3300 C   0  0  0  0  0  0  0  0  0  0  0  0
  -18.1974   16.7298  -37.5613 C   0  0  0  0  0  0  0  0  0  0  0  0
  -18.8034   16.5908  -36.3291 C   0  0  0  0  0  0  0  0  0  0  0  0
  1  2  1  0
  2  3  2  0
  3  4  1  0
  4  5  2  0
  5  6  1  0
  6  7  2  0
  7  8  1  0
  8  9  2  0
  9 10  1  0
 10 11  2  0
 11 12  1  0
 12 13  2  0
 13 14  1  0
 14 15  2  0
 15 16  1  0
 16 17  2  0
 17 18  1  0
 18 19  2  0
 13 20  1  0
 20 21  2  0
 21 22  1  0
 22 23  1  0
 23 24  2  0
 24 25  1  0
 25 26  2  0
 26 27  1  0
 27 28  1  0
 27 29  1  0
 29 30  1  0
 30 31  1  0
 26 32  1  0
 32 33  2  0
  7  2  1  0
 22  8  1  0
 33 23  1  0
 21 10  1  0
 31 27  1  0
 19 14  1  0
M  END
$$$$
