
     RDKit          3D

 20 19  0  0  0  0  0  0  0  0999 V2000
  -17.1409   46.3509  -20.9975 C   0  0  0  0  0  0  0  0  0  0  0  0
  -18.3327   45.5902  -21.4902 C   0  0  1  0  0  0  0  0  0  0  0  0
  -18.4332   45.7931  -22.9232 N   0  0  0  0  0  0  0  0  0  0  0  0
  -18.2301   44.1006  -21.2488 C   0  0  1  0  0  0  0  0  0  0  0  0
  -18.0993   43.7560  -19.7897 C   0  0  0  0  0  0  0  0  0  0  0  0
  -17.7745   42.2603  -19.7732 C   0  0  0  0  0  0  0  0  0  0  0  0
  -18.9782   41.5230  -20.2197 C   0  0  2  0  0  0  0  0  0  0  0  0
  -18.5760   40.0838  -20.4112 C   0  0  0  0  0  0  0  0  0  0  0  0
  -17.4098   39.7167  -20.1971 O   0  0  0  0  0  0  0  0  0  0  0  0
  -19.5512   39.1604  -20.8388 N   0  0  0  0  0  0  0  0  0  0  0  0
  -19.3713   37.7834  -21.0727 C   0  0  0  0  0  0  0  0  0  0  0  0
  -20.4794   37.0425  -21.4963 C   0  0  0  0  0  0  0  0  0  0  0  0
  -20.3847   35.6863  -21.7470 C   0  0  0  0  0  0  0  0  0  0  0  0
  -19.2024   35.0690  -21.5796 N   0  0  0  0  0  0  0  0  0  0  0  0
  -18.1178   35.7312  -21.1776 C   0  0  0  0  0  0  0  0  0  0  0  0
  -18.2133   37.1020  -20.9242 C   0  0  0  0  0  0  0  0  0  0  0  0
  -19.6545   42.0282  -21.4314 C   0  0  0  0  0  0  0  0  0  0  0  0
  -19.4169   43.4169  -21.8387 C   0  0  0  0  0  0  0  0  0  0  0  0
  -18.7237   40.9305  -21.0033 Cl  0  0  0  0  0  0  0  0  0  0  0  0
  -18.7231   40.9338  -21.0035 Cl  0  0  0  0  0  0  0  0  0  0  0  0
  2  1  1  6
  2  3  1  0
  2  4  1  0
  4  5  1  1
  5  6  1  0
  6  7  1  0
  7  8  1  6
  8  9  2  0
  8 10  1  0
 10 11  1  0
 11 12  2  0
 12 13  1  0
 13 14  2  0
 14 15  1  0
 15 16  2  0
  7 17  1  0
 17 18  1  0
 18  4  1  0
 16 11  1  0
M  END
$$$$
