
     RDKit          3D

 11 12  0  0  0  0  0  0  0  0999 V2000
  -21.9928   36.6027  -22.0004 N   0  0  0  0  0  0  0  0  0  0  0  0
  -20.6941   37.1712  -22.0471 C   0  0  0  0  0  0  0  0  0  0  0  0
  -20.3146   38.0228  -23.0294 N   0  0  0  0  0  0  0  0  0  0  0  0
  -19.1072   38.5761  -23.1077 C   0  0  0  0  0  0  0  0  0  0  0  0
  -18.4584   39.4217  -23.9245 N   0  0  0  0  0  0  0  0  0  0  0  0
  -17.2229   39.6356  -23.5069 N   0  0  0  0  0  0  0  0  0  0  0  0
  -17.0546   38.9122  -22.3868 N   0  0  0  0  0  0  0  0  0  0  0  0
  -18.1935   38.2537  -22.1200 C   0  0  0  0  0  0  0  0  0  0  0  0
  -18.5514   37.3914  -21.1101 C   0  0  0  0  0  0  0  0  0  0  0  0
  -17.7167   37.0868  -20.1933 O   0  0  0  0  0  0  0  0  0  0  0  0
  -19.7964   36.8742  -21.1046 N   0  0  0  0  0  0  0  0  0  0  0  0
  1  2  1  0
  2  3  2  0
  3  4  1  0
  4  5  1  0
  5  6  1  0
  6  7  2  0
  7  8  1  0
  8  9  1  0
  9 10  2  0
  9 11  1  0
 11  2  1  0
  8  4  2  0
M  END
$$$$
