
     RDKit          3D

 20 22  0  0  0  0  0  0  0  0999 V2000
  -15.5255   43.1009  -20.2935 C   0  0  0  0  0  0  0  0  0  0  0  0
  -16.2412   44.1472  -20.5448 C   0  0  0  0  0  0  0  0  0  0  0  0
  -17.6553   44.1833  -20.8414 C   0  0  0  0  0  0  0  0  0  0  0  0
  -18.3230   45.3933  -20.9262 C   0  0  0  0  0  0  0  0  0  0  0  0
  -19.6571   45.4238  -21.2062 C   0  0  0  0  0  0  0  0  0  0  0  0
  -20.3162   46.6506  -21.2884 O   0  0  0  0  0  0  0  0  0  0  0  0
  -20.3960   44.2830  -21.4151 C   0  0  0  0  0  0  0  0  0  0  0  0
  -19.7348   43.0793  -21.3314 C   0  0  0  0  0  0  0  0  0  0  0  0
  -20.1166   41.7946  -21.4715 N   0  0  0  0  0  0  0  0  0  0  0  0
  -19.0677   40.9774  -21.2881 C   0  0  0  0  0  0  0  0  0  0  0  0
  -19.0500   39.5049  -21.3527 C   0  0  0  0  0  0  0  0  0  0  0  0
  -20.1885   38.7727  -21.1259 C   0  0  0  0  0  0  0  0  0  0  0  0
  -20.1826   37.4040  -21.1836 C   0  0  0  0  0  0  0  0  0  0  0  0
  -18.9992   36.7529  -21.4774 C   0  0  0  0  0  0  0  0  0  0  0  0
  -19.0190   35.3574  -21.5303 O   0  0  0  0  0  0  0  0  0  0  0  0
  -17.8480   37.4734  -21.7074 C   0  0  0  0  0  0  0  0  0  0  0  0
  -16.6867   36.8370  -21.9956 F   0  0  0  0  0  0  0  0  0  0  0  0
  -17.8847   38.8418  -21.6428 C   0  0  0  0  0  0  0  0  0  0  0  0
  -18.0330   41.7330  -21.0348 O   0  0  0  0  0  0  0  0  0  0  0  0
  -18.3747   43.0214  -21.0471 C   0  0  0  0  0  0  0  0  0  0  0  0
  1  2  2  0
  2  3  1  0
  3  4  2  0
  4  5  1  0
  5  6  1  0
  5  7  2  0
  7  8  1  0
  8  9  1  0
  9 10  2  0
 10 11  1  0
 11 12  2  0
 12 13  1  0
 13 14  2  0
 14 15  1  0
 14 16  1  0
 16 17  1  0
 16 18  2  0
 10 19  1  0
 19 20  1  0
 20  3  1  0
 20  8  2  0
 18 11  1  0
M  END
$$$$
