
     RDKit          3D

 17 19  0  0  0  0  0  0  0  0999 V2000
  -20.5947   39.7980  -23.9057 N   0  0  0  0  0  0  0  0  0  0  0  0
  -20.0859   39.6138  -22.6193 C   0  0  0  0  0  0  0  0  0  0  0  0
  -20.2281   38.4531  -21.9008 C   0  0  0  0  0  0  0  0  0  0  0  0
  -19.6813   38.4416  -20.6839 N   0  0  0  0  0  0  0  0  0  0  0  0
  -19.0183   39.4574  -20.1243 C   0  0  0  0  0  0  0  0  0  0  0  0
  -18.5662   39.2755  -18.9649 O   0  0  0  0  0  0  0  0  0  0  0  0
  -18.8362   40.6837  -20.8131 C   0  0  0  0  0  0  0  0  0  0  0  0
  -18.1971   41.7702  -20.3694 C   0  0  0  0  0  0  0  0  0  0  0  0
  -18.1256   42.8754  -21.1946 C   0  0  0  0  0  0  0  0  0  0  0  0
  -17.5355   44.1838  -21.0563 C   0  0  0  0  0  0  0  0  0  0  0  0
  -17.5305   45.0816  -22.1249 C   0  0  0  0  0  0  0  0  0  0  0  0
  -16.9550   46.3137  -21.9368 C   0  0  0  0  0  0  0  0  0  0  0  0
  -16.3980   46.6663  -20.7413 C   0  0  0  0  0  0  0  0  0  0  0  0
  -16.3925   45.7947  -19.6734 C   0  0  0  0  0  0  0  0  0  0  0  0
  -16.9732   44.5594  -19.8728 C   0  0  0  0  0  0  0  0  0  0  0  0
  -19.0331   42.2737  -22.6619 S   0  0  0  0  0  0  0  0  0  0  0  0
  -19.3871   40.7021  -22.0453 C   0  0  0  0  0  0  0  0  0  0  0  0
  1  2  1  0
  2  3  2  0
  3  4  1  0
  4  5  1  0
  5  6  2  0
  5  7  1  0
  7  8  1  0
  8  9  2  0
  9 10  1  0
 10 11  2  0
 11 12  1  0
 12 13  2  0
 13 14  1  0
 14 15  2  0
  9 16  1  0
 16 17  1  0
 17  2  1  0
 17  7  2  0
 15 10  1  0
M  END
$$$$
