
     RDKit          3D

 42 46  0  0  0  0  0  0  0  0999 V2000
  -16.4093   20.0667  -33.7448 C   0  0  0  0  0  0  0  0  0  0  0  0
  -16.2020   19.0350  -34.7919 C   0  0  0  0  0  0  0  0  0  0  0  0
  -17.3460   18.1917  -35.0809 N   0  0  0  0  0  0  0  0  0  0  0  0
  -18.3562   18.8340  -35.8904 C   0  0  0  0  0  0  0  0  0  0  0  0
  -19.4486   19.4031  -35.2753 C   0  0  0  0  0  0  0  0  0  0  0  0
  -20.4211   20.0495  -35.9795 C   0  0  0  0  0  0  0  0  0  0  0  0
  -21.6057   20.6600  -35.3803 C   0  0  0  0  0  0  0  0  0  0  0  0
  -21.4679   21.4959  -34.2755 C   0  0  0  0  0  0  0  0  0  0  0  0
  -22.5947   22.0793  -33.7081 C   0  0  0  0  0  0  0  0  0  0  0  0
  -23.8516   21.8511  -34.2129 C   0  0  0  0  0  0  0  0  0  0  0  0
  -25.0195   22.4837  -33.5785 C   0  0  0  0  0  0  0  0  0  0  0  0
  -25.2784   23.8156  -34.0649 N   0  0  0  0  0  0  0  0  0  0  0  0
  -24.8830   23.8939  -35.4536 C   0  0  0  0  0  0  0  0  0  0  0  0
  -25.0824   25.3126  -35.9895 C   0  0  0  0  0  0  0  0  0  0  0  0
  -26.3632   25.7646  -35.7218 O   0  0  0  0  0  0  0  0  0  0  0  0
  -27.1989   24.7613  -35.2567 C   0  0  0  0  0  0  0  0  0  0  0  0
  -26.6989   24.1064  -33.9872 C   0  0  0  0  0  0  0  0  0  0  0  0
  -23.9678   21.0229  -35.3043 C   0  0  0  0  0  0  0  0  0  0  0  0
  -22.8597   20.4375  -35.8774 C   0  0  0  0  0  0  0  0  0  0  0  0
  -20.2630   20.1100  -37.3525 C   0  0  0  0  0  0  0  0  0  0  0  0
  -19.1803   19.5471  -37.9807 C   0  0  0  0  0  0  0  0  0  0  0  0
  -19.1076   19.6562  -39.4168 C   0  0  0  0  0  0  0  0  0  0  0  0
  -19.0119   18.5853  -40.0617 O   0  0  0  0  0  0  0  0  0  0  0  0
  -19.1400   20.8825  -40.1089 N   0  0  0  0  0  0  0  0  0  0  0  0
  -19.4900   21.0813  -41.4738 C   0  0  0  0  0  0  0  0  0  0  0  0
  -20.4103   22.1932  -41.7561 C   0  0  0  0  0  0  0  0  0  0  0  0
  -21.7069   21.9667  -42.1689 C   0  0  0  0  0  0  0  0  0  0  0  0
  -22.1466   20.5639  -42.3185 C   0  0  0  0  0  0  0  0  0  0  0  0
  -22.5652   23.0386  -42.4374 C   0  0  0  0  0  0  0  0  0  0  0  0
  -22.1454   24.3433  -42.2988 C   0  0  0  0  0  0  0  0  0  0  0  0
  -23.0428   25.5096  -42.5717 C   0  0  0  0  0  0  0  0  0  0  0  0
  -20.8780   24.5390  -41.8960 N   0  0  0  0  0  0  0  0  0  0  0  0
  -20.0237   23.5092  -41.6292 C   0  0  0  0  0  0  0  0  0  0  0  0
  -18.8406   23.7657  -41.2558 O   0  0  0  0  0  0  0  0  0  0  0  0
  -18.2159   18.9039  -37.2601 C   0  0  0  0  0  0  0  0  0  0  0  0
  -17.0276   18.2832  -37.9413 C   0  0  0  0  0  0  0  0  0  0  0  0
  -17.4855   16.8348  -34.6124 C   0  0  0  0  0  0  0  0  0  0  0  0
  -16.2939   16.0108  -35.0224 C   0  0  0  0  0  0  0  0  0  0  0  0
  -16.6380   14.5568  -35.1680 C   0  0  0  0  0  0  0  0  0  0  0  0
  -17.6690   14.2661  -34.2630 O   0  0  0  0  0  0  0  0  0  0  0  0
  -18.8560   14.7414  -34.8216 C   0  0  0  0  0  0  0  0  0  0  0  0
  -18.7937   16.2474  -35.0257 C   0  0  0  0  0  0  0  0  0  0  0  0
  1  2  1  0
  2  3  1  0
  3  4  1  0
  4  5  2  0
  5  6  1  0
  6  7  1  0
  7  8  2  0
  8  9  1  0
  9 10  2  0
 10 11  1  0
 11 12  1  0
 12 13  1  0
 13 14  1  0
 14 15  1  0
 15 16  1  0
 16 17  1  0
 10 18  1  0
 18 19  2  0
  6 20  2  0
 20 21  1  0
 21 22  1  0
 22 23  2  0
 22 24  1  0
 24 25  1  0
 25 26  1  0
 26 27  2  0
 27 28  1  0
 27 29  1  0
 29 30  2  0
 30 31  1  0
 30 32  1  0
 32 33  1  0
 33 34  2  0
 21 35  2  0
 35 36  1  0
  3 37  1  0
 37 38  1  0
 38 39  1  0
 39 40  1  0
 40 41  1  0
 41 42  1  0
 35  4  1  0
 42 37  1  0
 19  7  1  0
 33 26  1  0
 17 12  1  0
M  END
$$$$
