
     RDKit          3D

 32 35  0  0  0  0  0  0  0  0999 V2000
  -20.4428   38.3666  -25.7866 C   0  0  0  0  0  0  0  0  0  0  0  0
  -19.4522   37.3682  -26.0667 O   0  0  0  0  0  0  0  0  0  0  0  0
  -19.8453   36.0473  -26.1743 C   0  0  0  0  0  0  0  0  0  0  0  0
  -21.1244   35.7375  -26.5461 C   0  0  0  0  0  0  0  0  0  0  0  0
  -21.5003   34.4032  -26.6506 C   0  0  0  0  0  0  0  0  0  0  0  0
  -20.6083   33.3988  -26.3867 C   0  0  0  0  0  0  0  0  0  0  0  0
  -20.9988   31.9789  -26.5287 C   0  0  0  0  0  0  0  0  0  0  0  0
  -22.4156   31.7429  -26.4441 N   0  0  0  0  0  0  0  0  0  0  0  0
  -23.2331   31.5958  -27.5791 C   0  0  0  0  0  0  0  0  0  0  0  0
  -22.8507   32.1912  -28.6491 O   0  0  0  0  0  0  0  0  0  0  0  0
  -24.4476   30.8442  -27.6514 C   0  0  0  0  0  0  0  0  0  0  0  0
  -24.3905   29.4599  -27.8773 C   0  0  0  0  0  0  0  0  0  0  0  0
  -25.5537   28.7311  -27.9678 C   0  0  0  0  0  0  0  0  0  0  0  0
  -25.5629   27.2909  -28.1910 C   0  0  0  0  0  0  0  0  0  0  0  0
  -26.5250   26.6980  -28.9476 C   0  0  0  0  0  0  0  0  0  0  0  0
  -26.4980   25.3517  -29.1442 N   0  0  0  0  0  0  0  0  0  0  0  0
  -25.5305   24.6024  -28.5968 C   0  0  0  0  0  0  0  0  0  0  0  0
  -24.5255   25.1489  -27.8174 C   0  0  0  0  0  0  0  0  0  0  0  0
  -23.4776   24.2564  -27.2428 C   0  0  0  0  0  0  0  0  0  0  0  0
  -24.5686   26.4963  -27.6324 C   0  0  0  0  0  0  0  0  0  0  0  0
  -26.7484   29.3920  -27.8331 N   0  0  0  0  0  0  0  0  0  0  0  0
  -26.8535   30.7006  -27.6178 C   0  0  0  0  0  0  0  0  0  0  0  0
  -25.6599   31.4058  -27.5305 C   0  0  0  0  0  0  0  0  0  0  0  0
  -25.7455   32.8866  -27.2448 C   0  0  0  0  0  0  0  0  0  0  0  0
  -25.5470   33.5633  -26.2747 N   0  0  0  0  0  0  0  0  0  0  0  0
  -25.6671   34.8612  -26.1753 C   0  0  0  0  0  0  0  0  0  0  0  0
  -26.0579   35.5301  -27.2792 C   0  0  0  0  0  0  0  0  0  0  0  0
  -26.2362   34.1089  -28.4788 S   0  0  0  0  0  0  0  0  0  0  0  0
  -19.3583   33.7193  -26.0222 N   0  0  0  0  0  0  0  0  0  0  0  0
  -18.9717   34.9985  -25.9145 C   0  0  0  0  0  0  0  0  0  0  0  0
  -17.6617   35.2753  -25.5317 O   0  0  0  0  0  0  0  0  0  0  0  0
  -16.8397   34.2420  -25.0605 C   0  0  0  0  0  0  0  0  0  0  0  0
  1  2  1  0
  2  3  1  0
  3  4  2  0
  4  5  1  0
  5  6  2  0
  6  7  1  0
  7  8  1  0
  8  9  1  0
  9 10  2  0
  9 11  1  0
 11 12  2  0
 12 13  1  0
 13 14  1  0
 14 15  2  0
 15 16  1  0
 16 17  2  0
 17 18  1  0
 18 19  1  0
 18 20  2  0
 13 21  2  0
 21 22  1  0
 22 23  2  0
 23 24  1  0
 24 25  2  0
 25 26  1  0
 26 27  2  0
 27 28  1  0
  6 29  1  0
 29 30  2  0
 30 31  1  0
 31 32  1  0
 30  3  1  0
 23 11  1  0
 28 24  1  0
 20 14  1  0
M  END
$$$$
