
     RDKit          3D

 20 21  0  0  0  0  0  0  0  0999 V2000
  -14.0670   44.9552  -21.0516 C   0  0  0  0  0  0  0  0  0  0  0  0
  -15.2852   44.4309  -20.5587 O   0  0  0  0  0  0  0  0  0  0  0  0
  -15.4401   44.1804  -19.1891 C   0  0  0  0  0  0  0  0  0  0  0  0
  -14.4510   44.4130  -18.3083 N   0  0  0  0  0  0  0  0  0  0  0  0
  -14.5946   44.1741  -16.9921 C   0  0  0  0  0  0  0  0  0  0  0  0
  -15.7779   43.6748  -16.4884 C   0  0  0  0  0  0  0  0  0  0  0  0
  -16.7642   43.4439  -17.3735 N   0  0  0  0  0  0  0  0  0  0  0  0
  -16.6276   43.6801  -18.6893 C   0  0  0  0  0  0  0  0  0  0  0  0
  -17.6909   43.4242  -19.5942 N   0  0  0  0  0  0  0  0  0  0  0  0
  -17.3399   42.5757  -21.0438 S   0  0  0  0  0  6  0  0  0  0  0  0
  -17.9296   43.3572  -22.1809 O   0  0  0  0  0  0  0  0  0  0  0  0
  -15.8669   42.4594  -21.2841 O   0  0  0  0  0  0  0  0  0  0  0  0
  -18.0656   40.9911  -21.0351 C   0  0  0  0  0  0  0  0  0  0  0  0
  -18.9942   40.6529  -20.0797 C   0  0  0  0  0  0  0  0  0  0  0  0
  -19.5633   39.4043  -20.0763 C   0  0  0  0  0  0  0  0  0  0  0  0
  -19.2170   38.4699  -21.0255 C   0  0  0  0  0  0  0  0  0  0  0  0
  -18.2836   38.8345  -21.9721 C   0  0  0  0  0  0  0  0  0  0  0  0
  -17.8336   37.6496  -23.1891 Cl  0  0  0  0  0  0  0  0  0  0  0  0
  -17.6924   40.0784  -22.0052 C   0  0  0  0  0  0  0  0  0  0  0  0
  -16.5129   40.5384  -23.2017 Cl  0  0  0  0  0  0  0  0  0  0  0  0
  1  2  1  0
  2  3  1  0
  3  4  2  0
  4  5  1  0
  5  6  2  0
  6  7  1  0
  7  8  2  0
  8  9  1  0
  9 10  1  0
 10 11  2  0
 10 12  2  0
 10 13  1  0
 13 14  2  0
 14 15  1  0
 15 16  2  0
 16 17  1  0
 17 18  1  0
 17 19  2  0
 19 20  1  0
  8  3  1  0
 19 13  1  0
M  END
$$$$
