
     RDKit          3D

 24 27  0  0  0  0  0  0  0  0999 V2000
  -16.7617   33.4030  -25.1310 N   0  0  0  0  0  0  0  0  0  0  0  0
  -17.8248   34.1990  -24.6358 C   0  0  0  0  0  0  0  0  0  0  0  0
  -18.3941   35.1188  -25.4256 N   0  0  0  0  0  0  0  0  0  0  0  0
  -19.4039   35.8672  -24.9166 C   0  0  0  0  0  0  0  0  0  0  0  0
  -19.8806   35.7351  -23.6267 C   0  0  0  0  0  0  0  0  0  0  0  0
  -20.9525   36.5701  -23.1510 C   0  0  0  0  0  0  0  0  0  0  0  0
  -22.2340   36.3918  -23.6228 C   0  0  0  0  0  0  0  0  0  0  0  0
  -23.2707   37.2041  -23.1432 C   0  0  0  0  0  0  0  0  0  0  0  0
  -23.0589   38.1552  -22.2354 N   0  0  0  0  0  0  0  0  0  0  0  0
  -21.7837   38.3256  -21.7727 C   0  0  0  0  0  0  0  0  0  0  0  0
  -21.6277   39.3639  -20.8133 N   0  0  0  0  0  0  0  0  0  0  0  0
  -20.3224   39.6806  -20.3925 C   0  0  0  0  0  0  0  0  0  0  0  0
  -20.1343   40.5827  -19.3540 C   0  0  0  0  0  0  0  0  0  0  0  0
  -18.8612   40.9145  -18.9398 C   0  0  0  0  0  0  0  0  0  0  0  0
  -17.7678   40.3905  -19.5113 N   0  0  0  0  0  0  0  0  0  0  0  0
  -17.9245   39.5167  -20.5160 C   0  0  0  0  0  0  0  0  0  0  0  0
  -19.1868   39.1559  -20.9628 C   0  0  0  0  0  0  0  0  0  0  0  0
  -20.8236   37.5444  -22.2419 N   0  0  0  0  0  0  0  0  0  0  0  0
  -19.2827   34.7868  -22.8414 C   0  0  0  0  0  0  0  0  0  0  0  0
  -19.7368   34.5389  -21.4608 C   0  0  0  0  0  0  0  0  0  0  0  0
  -20.4716   33.2128  -21.3356 C   0  0  0  0  0  0  0  0  0  0  0  0
  -21.4381   33.2442  -20.1365 C   0  0  0  0  0  0  0  0  0  0  0  0
  -20.3024   32.2879  -20.2258 C   0  0  0  0  0  0  0  0  0  0  0  0
  -18.2774   34.0585  -23.3820 N   0  0  0  0  0  0  0  0  0  0  0  0
  1  2  1  0
  2  3  2  0
  3  4  1  0
  4  5  2  0
  5  6  1  0
  6  7  2  0
  7  8  1  0
  8  9  2  0
  9 10  1  0
 10 11  1  0
 11 12  1  0
 12 13  2  0
 13 14  1  0
 14 15  2  0
 15 16  1  0
 16 17  2  0
 10 18  2  0
  5 19  1  0
 19 20  1  0
 20 21  1  0
 21 22  1  0
 22 23  1  0
 19 24  2  0
 24  2  1  0
 18  6  1  0
 23 21  1  0
 17 12  1  0
M  END
$$$$
