
     RDKit          3D

 34 37  0  0  0  0  0  0  0  0999 V2000
  -24.7748   21.6311  -35.6811 C   0  0  0  0  0  0  0  0  0  0  0  0
  -23.4685   20.8466  -35.5813 C   0  0  0  0  0  0  0  0  0  0  0  0
  -23.5681   19.7382  -34.5989 C   0  0  0  0  0  0  0  0  0  0  0  0
  -24.7243   19.2246  -34.4825 O   0  0  0  0  0  0  0  0  0  0  0  0
  -22.4603   19.2972  -33.8641 O   0  0  0  0  0  0  0  0  0  0  0  0
  -22.2714   17.8967  -33.7681 C   0  0  2  0  0  0  0  0  0  0  0  0
  -23.0351   17.1532  -34.7765 C   0  0  0  0  0  0  0  0  0  0  0  0
  -22.4033   16.3080  -35.4463 O   0  0  0  0  0  0  0  0  0  0  0  0
  -24.7378   17.2477  -35.1875 S   0  0  0  0  0  0  0  0  0  0  0  0
  -25.3196   16.2463  -36.5271 C   0  0  0  0  0  0  0  0  0  0  0  0
  -24.9040   16.5282  -37.7756 F   0  0  0  0  0  0  0  0  0  0  0  0
  -22.9985   17.4324  -32.4441 C   0  0  2  0  0  0  0  0  0  0  0  0
  -22.9166   18.4723  -31.3849 C   0  0  0  0  0  0  0  0  0  0  0  0
  -22.0875   16.2751  -32.0768 C   0  0  0  0  0  0  0  0  0  0  0  0
  -20.8109   16.9981  -32.1625 C   0  0  1  0  0  0  0  0  0  0  0  0
  -19.5405   16.2821  -32.0320 C   0  0  2  0  0  0  0  0  0  0  0  0
  -19.5904   15.3207  -30.8843 C   0  0  0  0  0  0  0  0  0  0  0  0
  -18.2112   14.6241  -30.8439 C   0  0  2  0  0  0  0  0  0  0  0  0
  -18.1440   13.6907  -29.8654 F   0  0  0  0  0  0  0  0  0  0  0  0
  -17.2996   15.7946  -30.4939 C   0  0  0  0  0  0  0  0  0  0  0  0
  -16.6804   15.7431  -29.3659 C   0  0  0  0  0  0  0  0  0  0  0  0
  -15.7938   16.8125  -28.9339 C   0  0  0  0  0  0  0  0  0  0  0  0
  -15.1724   16.7965  -27.8426 O   0  0  0  0  0  0  0  0  0  0  0  0
  -15.6457   17.9418  -29.8411 C   0  0  0  0  0  0  0  0  0  0  0  0
  -16.2990   17.9491  -30.9907 C   0  0  0  0  0  0  0  0  0  0  0  0
  -17.1857   16.8922  -31.4628 C   0  0  1  0  0  0  0  0  0  0  0  0
  -16.5262   16.2954  -32.6982 C   0  0  0  0  0  0  0  0  0  0  0  0
  -18.5520   17.4418  -31.7565 C   0  0  2  0  0  0  0  0  0  0  0  0
  -19.0146   17.9947  -30.5752 F   0  0  0  0  0  0  0  0  0  0  0  0
  -18.6084   18.4749  -32.8010 C   0  0  1  0  0  0  0  0  0  0  0  0
  -17.6178   18.3345  -33.7855 O   0  0  0  0  0  0  0  0  0  0  0  0
  -19.8992   18.7595  -33.4630 C   0  0  0  0  0  0  0  0  0  0  0  0
  -20.8474   17.5808  -33.5881 C   0  0  2  0  0  0  0  0  0  0  0  0
  -20.2722   16.6007  -34.5786 C   0  0  0  0  0  0  0  0  0  0  0  0
  1  2  1  0
  2  3  1  0
  3  4  2  0
  3  5  1  0
  6  5  1  6
  6  7  1  0
  7  8  2  0
  7  9  1  0
  9 10  1  0
 10 11  1  0
  6 12  1  0
 12 13  1  1
 12 14  1  0
 15 14  1  6
 15 16  1  0
 16 17  1  1
 17 18  1  0
 18 19  1  1
 18 20  1  0
 20 21  2  0
 21 22  1  0
 22 23  2  0
 22 24  1  0
 24 25  2  0
 25 26  1  0
 26 27  1  6
 26 28  1  0
 28 29  1  1
 28 30  1  0
 30 31  1  6
 30 32  1  0
 32 33  1  0
 33 34  1  6
 33  6  1  0
 33 15  1  0
 28 16  1  0
 26 20  1  0
M  END
$$$$
