
     RDKit          3D

 24 26  0  0  0  0  0  0  0  0999 V2000
  -12.4666   10.7238  -28.7400 C   0  0  0  0  0  0  0  0  0  0  0  0
  -13.5849   11.4814  -28.1393 C   0  0  0  0  0  0  0  0  0  0  0  0
  -13.9849   12.6395  -28.7678 C   0  0  0  0  0  0  0  0  0  0  0  0
  -15.0248   13.3986  -28.2745 C   0  0  0  0  0  0  0  0  0  0  0  0
  -15.3805   14.5811  -28.9564 N   0  0  0  0  0  0  0  0  0  0  0  0
  -16.7223   15.0036  -29.2226 C   0  0  0  0  0  0  0  0  0  0  0  0
  -17.5069   14.9451  -28.2641 O   0  0  0  0  0  0  0  0  0  0  0  0
  -17.1117   15.4721  -30.5957 C   0  0  0  0  0  0  0  0  0  0  0  0
  -17.7452   16.8045  -30.5389 C   0  0  0  0  0  0  0  0  0  0  0  0
  -16.9855   17.9384  -30.5875 N   0  0  0  0  0  0  0  0  0  0  0  0
  -17.5042   19.1421  -30.6078 N   0  0  0  0  0  0  0  0  0  0  0  0
  -16.6153   20.2773  -30.6671 C   0  0  0  0  0  0  0  0  0  0  0  0
  -18.8226   19.3452  -30.5812 C   0  0  0  0  0  0  0  0  0  0  0  0
  -19.3076   20.5002  -30.6011 O   0  0  0  0  0  0  0  0  0  0  0  0
  -19.6741   18.2521  -30.5304 C   0  0  0  0  0  0  0  0  0  0  0  0
  -21.0180   18.4791  -30.4983 C   0  0  0  0  0  0  0  0  0  0  0  0
  -21.8796   17.4103  -30.4406 C   0  0  0  0  0  0  0  0  0  0  0  0
  -21.3313   16.1457  -30.4155 C   0  0  0  0  0  0  0  0  0  0  0  0
  -19.9689   15.9294  -30.4481 C   0  0  0  0  0  0  0  0  0  0  0  0
  -19.0943   16.9980  -30.5099 C   0  0  0  0  0  0  0  0  0  0  0  0
  -15.6759   12.9975  -27.1339 C   0  0  0  0  0  0  0  0  0  0  0  0
  -15.2656   11.8441  -26.5192 C   0  0  0  0  0  0  0  0  0  0  0  0
  -14.2281   11.0586  -26.9883 C   0  0  0  0  0  0  0  0  0  0  0  0
  -13.6569    9.4714  -26.1559 Br  0  0  0  0  0  0  0  0  0  0  0  0
  1  2  1  0
  2  3  2  0
  3  4  1  0
  4  5  1  0
  5  6  1  0
  6  7  2  0
  6  8  1  0
  8  9  1  0
  9 10  2  0
 10 11  1  0
 11 12  1  0
 11 13  1  0
 13 14  2  0
 13 15  1  0
 15 16  2  0
 16 17  1  0
 17 18  2  0
 18 19  1  0
 19 20  2  0
  4 21  2  0
 21 22  1  0
 22 23  2  0
 23 24  1  0
 23  2  1  0
 20  9  1  0
 20 15  1  0
M  END
$$$$
