
     RDKit          3D

 23 26  0  0  0  0  0  0  0  0999 V2000
  -13.4363   12.7422  -32.0481 C   0  0  0  0  0  0  0  0  0  0  0  0
  -13.2287   13.2232  -30.6319 C   0  0  0  0  0  0  0  0  0  0  0  0
  -12.0516   14.1417  -30.5593 C   0  0  0  0  0  0  0  0  0  0  0  0
  -14.4720   13.8757  -30.2121 N   0  0  0  0  0  0  0  0  0  0  0  0
  -15.0631   14.9222  -30.7440 N   0  0  0  0  0  0  0  0  0  0  0  0
  -16.2036   15.2201  -30.0617 C   0  0  0  0  0  0  0  0  0  0  0  0
  -17.1182   16.3138  -30.3313 C   0  0  0  0  0  0  0  0  0  0  0  0
  -16.5687   17.5050  -30.7581 C   0  0  0  0  0  0  0  0  0  0  0  0
  -17.3775   18.5911  -31.0686 C   0  0  0  0  0  0  0  0  0  0  0  0
  -18.7550   18.5055  -30.9575 C   0  0  0  0  0  0  0  0  0  0  0  0
  -19.7592   19.3255  -31.1678 O   0  0  0  0  0  0  0  0  0  0  0  0
  -20.9051   18.7330  -30.9033 C   0  0  0  0  0  0  0  0  0  0  0  0
  -22.2092   19.2684  -31.0016 N   0  0  0  0  0  0  0  0  0  0  0  0
  -20.5973   17.4648  -30.5031 N   0  0  0  0  0  0  0  0  0  0  0  0
  -19.2666   17.3000  -30.5287 C   0  0  0  0  0  0  0  0  0  0  0  0
  -18.4719   16.2016  -30.2139 C   0  0  0  0  0  0  0  0  0  0  0  0
  -16.2820   14.2794  -29.0578 C   0  0  0  0  0  0  0  0  0  0  0  0
  -17.2066   14.0793  -28.0451 C   0  0  0  0  0  0  0  0  0  0  0  0
  -18.3163   14.9485  -27.9086 N   0  0  0  0  0  0  0  0  0  0  0  0
  -16.9957   13.0558  -27.1964 N   0  0  0  0  0  0  0  0  0  0  0  0
  -15.9292   12.2522  -27.3183 C   0  0  0  0  0  0  0  0  0  0  0  0
  -15.0128   12.4177  -28.2860 N   0  0  0  0  0  0  0  0  0  0  0  0
  -15.1764   13.4240  -29.1582 C   0  0  0  0  0  0  0  0  0  0  0  0
  1  2  1  0
  2  3  1  0
  2  4  1  0
  4  5  1  0
  5  6  2  0
  6  7  1  0
  7  8  2  0
  8  9  1  0
  9 10  2  0
 10 11  1  0
 11 12  1  0
 12 13  1  0
 12 14  2  0
 14 15  1  0
 15 16  2  0
  6 17  1  0
 17 18  2  0
 18 19  1  0
 18 20  1  0
 20 21  2  0
 21 22  1  0
 22 23  2  0
 23  4  1  0
 16  7  1  0
 23 17  1  0
 15 10  1  0
M  END
$$$$
