
     RDKit          3D

 40 41  0  0  0  0  0  0  0  0999 V2000
  -15.9218   18.2891  -32.9194 C   0  0  0  0  0  0  0  0  0  0  0  0
  -16.3471   17.2819  -33.8410 O   0  0  0  0  0  0  0  0  0  0  0  0
  -17.2912   17.7358  -34.7985 C   0  0  0  0  0  0  0  0  0  0  0  0
  -18.1494   16.8662  -35.4057 C   0  0  0  0  0  0  0  0  0  0  0  0
  -17.9211   15.5032  -34.8344 C   0  0  0  0  0  0  0  0  0  0  0  0
  -18.9803   15.0412  -33.8570 C   0  0  1  0  0  0  0  0  0  0  0  0
  -19.4611   13.6281  -34.2223 C   0  0  0  0  0  0  0  0  0  0  0  0
  -18.6106   15.1293  -32.4094 C   0  0  0  0  0  0  0  0  0  0  0  0
  -19.7260   15.5888  -31.5009 C   0  0  2  0  0  0  0  0  0  0  0  0
  -20.9621   15.5089  -32.0929 O   0  0  0  0  0  0  0  0  0  0  0  0
  -22.0302   15.5854  -31.2033 C   0  0  0  0  0  0  0  0  0  0  0  0
  -19.5190   16.9734  -30.9368 C   0  0  2  0  0  0  0  0  0  0  0  0
  -18.6231   16.9696  -29.8742 O   0  0  0  0  0  0  0  0  0  0  0  0
  -20.8501   17.6271  -30.5128 C   0  0  1  0  0  0  0  0  0  0  0  0
  -21.0460   17.2095  -29.0760 C   0  0  0  0  0  0  0  0  0  0  0  0
  -20.7739   19.1257  -30.6975 C   0  0  0  0  0  0  0  0  0  0  0  0
  -21.2636   20.1090  -31.3623 C   0  0  0  0  0  0  0  0  0  0  0  0
  -20.8633   21.6145  -31.2188 C   0  0  0  0  0  0  0  0  0  0  0  0
  -22.3153   20.1679  -32.4770 C   0  0  2  0  0  0  0  0  0  0  0  0
  -23.4389   19.4002  -32.3726 O   0  0  0  0  0  0  0  0  0  0  0  0
  -24.7591   19.7870  -32.3909 C   0  0  0  0  0  0  0  0  0  0  0  0
  -25.2403   20.4842  -33.5254 N   0  0  0  0  0  0  0  0  0  0  0  0
  -25.4485   19.4885  -31.3853 O   0  0  0  0  0  0  0  0  0  0  0  0
  -21.6656   19.9811  -33.8863 C   0  0  1  0  0  0  0  0  0  0  0  0
  -20.4301   20.6529  -33.8384 O   0  0  0  0  0  0  0  0  0  0  0  0
  -19.7784   20.4818  -32.6205 C   0  0  0  0  0  0  0  0  0  0  0  0
  -21.5363   18.5170  -34.0028 C   0  0  0  0  0  0  0  0  0  0  0  0
  -22.0172   17.8412  -35.0206 C   0  0  0  0  0  0  0  0  0  0  0  0
  -22.7324   18.2867  -36.2115 C   0  0  0  0  0  0  0  0  0  0  0  0
  -22.5451   18.9995  -37.3005 C   0  0  0  0  0  0  0  0  0  0  0  0
  -23.5858   19.2831  -38.4188 C   0  0  0  0  0  0  0  0  0  0  0  0
  -21.3369   19.7588  -37.7984 C   0  0  0  0  0  0  0  0  0  0  0  0
  -21.6177   20.7799  -38.6049 O   0  0  0  0  0  0  0  0  0  0  0  0
  -19.9389   19.5899  -37.5661 N   0  0  0  0  0  0  0  0  0  0  0  0
  -19.1309   18.7844  -36.7012 C   0  0  0  0  0  0  0  0  0  0  0  0
  -18.2318   19.5927  -36.0456 C   0  0  0  0  0  0  0  0  0  0  0  0
  -17.2755   19.1570  -35.0780 C   0  0  0  0  0  0  0  0  0  0  0  0
  -16.4742   19.9466  -34.5061 O   0  0  0  0  0  0  0  0  0  0  0  0
  -19.1092   17.3544  -36.3911 C   0  0  0  0  0  0  0  0  0  0  0  0
  -19.9498   16.5109  -37.0023 O   0  0  0  0  0  0  0  0  0  0  0  0
  1  2  1  0
  2  3  1  0
  3  4  2  0
  4  5  1  0
  5  6  1  0
  6  7  1  6
  6  8  1  0
  8  9  1  0
  9 10  1  6
 10 11  1  0
  9 12  1  0
 12 13  1  1
 12 14  1  0
 14 15  1  1
 14 16  1  0
 16 17  2  0
 17 18  1  0
 17 19  1  0
 19 20  1  1
 20 21  1  0
 21 22  1  0
 21 23  2  0
 19 24  1  0
 24 25  1  1
 25 26  1  0
 24 27  1  0
 27 28  2  0
 28 29  1  0
 29 30  2  0
 30 31  1  0
 30 32  1  0
 32 33  2  0
 32 34  1  0
 34 35  1  0
 35 36  2  0
 36 37  1  0
 37 38  2  0
 35 39  1  0
 39 40  2  0
 37  3  1  0
 39  4  1  0
M  END
$$$$
