
     RDKit          3D

 27 30  0  0  0  0  0  0  0  0999 V2000
  -15.3904   21.1236  -43.9762 C   0  0  0  0  0  0  0  0  0  0  0  0
  -16.3339   22.0593  -43.2693 C   0  0  0  0  0  0  0  0  0  0  0  0
  -16.3090   23.4039  -43.2807 N   0  0  0  0  0  0  0  0  0  0  0  0
  -17.3109   23.8579  -42.5329 N   0  0  0  0  0  0  0  0  0  0  0  0
  -17.9656   22.7980  -42.0515 C   0  0  0  0  0  0  0  0  0  0  0  0
  -19.1341   22.8705  -41.1817 C   0  0  0  0  0  0  0  0  0  0  0  0
  -19.5780   24.0474  -40.6164 C   0  0  0  0  0  0  0  0  0  0  0  0
  -20.6863   24.0749  -39.7997 C   0  0  0  0  0  0  0  0  0  0  0  0
  -21.3779   22.8945  -39.5347 C   0  0  0  0  0  0  0  0  0  0  0  0
  -22.5198   22.8663  -38.7046 N   0  0  0  0  0  0  0  0  0  0  0  0
  -22.5755   23.7545  -37.5620 C   0  0  0  0  0  0  0  0  0  0  0  0
  -23.2258   22.9591  -36.4495 C   0  0  0  0  0  0  0  0  0  0  0  0
  -24.7027   22.8542  -36.7629 C   0  0  0  0  0  0  0  0  0  0  0  0
  -25.2906   24.0650  -36.4187 O   0  0  0  0  0  0  0  0  0  0  0  0
  -26.6093   24.3476  -36.2066 C   0  0  0  0  0  0  0  0  0  0  0  0
  -27.5203   23.4280  -35.7364 C   0  0  0  0  0  0  0  0  0  0  0  0
  -28.8561   23.7637  -35.5359 C   0  0  0  0  0  0  0  0  0  0  0  0
  -29.7538   22.8628  -35.0739 F   0  0  0  0  0  0  0  0  0  0  0  0
  -29.3009   25.0357  -35.8060 C   0  0  0  0  0  0  0  0  0  0  0  0
  -28.4017   25.9755  -36.2795 C   0  0  0  0  0  0  0  0  0  0  0  0
  -27.0756   25.6115  -36.4696 C   0  0  0  0  0  0  0  0  0  0  0  0
  -25.9525   26.8112  -37.0684 Cl  0  0  0  0  0  0  0  0  0  0  0  0
  -24.8745   22.6922  -38.2701 C   0  0  0  0  0  0  0  0  0  0  0  0
  -23.6665   22.0053  -38.9027 C   0  0  0  0  0  0  0  0  0  0  0  0
  -20.9026   21.7785  -40.1106 N   0  0  0  0  0  0  0  0  0  0  0  0
  -19.8517   21.7737  -40.8806 N   0  0  0  0  0  0  0  0  0  0  0  0
  -17.3549   21.7380  -42.5113 O   0  0  0  0  0  0  0  0  0  0  0  0
  1  2  1  0
  2  3  2  0
  3  4  1  0
  4  5  2  0
  5  6  1  0
  6  7  2  0
  7  8  1  0
  8  9  2  0
  9 10  1  0
 10 11  1  0
 11 12  1  0
 12 13  1  0
 13 14  1  0
 14 15  1  0
 15 16  2  0
 16 17  1  0
 17 18  1  0
 17 19  2  0
 19 20  1  0
 20 21  2  0
 21 22  1  0
 13 23  1  0
 23 24  1  0
  9 25  1  0
 25 26  2  0
  5 27  1  0
 27  2  1  0
 26  6  1  0
 24 10  1  0
 21 15  1  0
M  END
$$$$
