
     RDKit          3D

 37 41  0  0  0  0  0  0  0  0999 V2000
  -19.8580   45.3013  -21.5329 C   0  0  0  0  0  0  0  0  0  0  0  0
  -19.2997   44.4520  -20.5490 O   0  0  0  0  0  0  0  0  0  0  0  0
  -19.1013   43.1013  -20.7590 C   0  0  0  0  0  0  0  0  0  0  0  0
  -20.1445   42.3146  -21.2693 C   0  0  0  0  0  0  0  0  0  0  0  0
  -20.0074   40.9670  -21.4993 C   0  0  0  0  0  0  0  0  0  0  0  0
  -21.0202   40.1876  -21.9982 C   0  0  0  0  0  0  0  0  0  0  0  0
  -22.2814   40.7496  -22.3042 N   0  0  0  0  0  0  0  0  0  0  0  0
  -23.3399   39.9010  -22.8426 C   0  0  0  0  0  0  0  0  0  0  0  0
  -24.6685   40.6084  -22.6867 C   0  0  0  0  0  0  0  0  0  0  0  0
  -24.8156   41.5735  -23.8432 C   0  0  0  0  0  0  0  0  0  0  0  0
  -24.9612   40.9136  -25.0953 N   0  0  0  0  0  0  0  0  0  0  0  0
  -26.2110   41.0525  -25.7531 C   0  0  0  0  0  0  0  0  0  0  0  0
  -26.3464   40.2468  -27.0112 C   0  0  0  0  0  0  0  0  0  0  0  0
  -26.5839   42.4938  -26.0412 C   0  0  0  0  0  0  0  0  0  0  0  0
  -24.4371   39.5849  -25.0710 C   0  0  0  0  0  0  0  0  0  0  0  0
  -23.1185   39.6049  -24.2904 C   0  0  0  0  0  0  0  0  0  0  0  0
  -20.8126   38.8431  -22.2042 N   0  0  0  0  0  0  0  0  0  0  0  0
  -19.6441   38.2451  -21.9355 C   0  0  0  0  0  0  0  0  0  0  0  0
  -19.4279   36.7881  -22.1561 C   0  0  0  0  0  0  0  0  0  0  0  0
  -19.3921   36.0311  -20.8457 C   0  0  0  0  0  0  0  0  0  0  0  0
  -19.7449   34.5749  -20.9921 C   0  0  0  0  0  0  0  0  0  0  0  0
  -19.4747   34.1283  -22.4172 C   0  0  0  0  0  0  0  0  0  0  0  0
  -20.3866   34.8235  -23.3983 C   0  0  0  0  0  0  0  0  0  0  0  0
  -20.5304   36.2571  -23.0114 C   0  0  0  0  0  0  0  0  0  0  0  0
  -18.6686   39.0257  -21.4490 N   0  0  0  0  0  0  0  0  0  0  0  0
  -18.7874   40.3343  -21.2205 C   0  0  0  0  0  0  0  0  0  0  0  0
  -17.7611   41.1015  -20.7197 C   0  0  0  0  0  0  0  0  0  0  0  0
  -17.9184   42.4578  -20.4946 C   0  0  0  0  0  0  0  0  0  0  0  0
  -16.8518   43.1932  -19.9864 O   0  0  0  0  0  0  0  0  0  0  0  0
  -15.9498   42.5812  -19.1155 C   0  0  0  0  0  0  0  0  0  0  0  0
  -14.7483   43.4992  -18.9511 C   0  0  0  0  0  0  0  0  0  0  0  0
  -13.7876   42.8345  -17.9974 C   0  0  0  0  0  0  0  0  0  0  0  0
  -12.8916   43.7231  -17.3393 N   0  0  0  0  0  0  0  0  0  0  0  0
  -13.0707   45.0821  -17.7478 C   0  0  0  0  0  0  0  0  0  0  0  0
  -13.2698   45.9005  -16.5064 C   0  0  0  0  0  0  0  0  0  0  0  0
  -13.0439   45.0069  -15.3302 C   0  0  0  0  0  0  0  0  0  0  0  0
  -12.8960   43.6370  -15.9162 C   0  0  0  0  0  0  0  0  0  0  0  0
  1  2  1  0
  2  3  1  0
  3  4  2  0
  4  5  1  0
  5  6  2  0
  6  7  1  0
  7  8  1  0
  8  9  1  0
  9 10  1  0
 10 11  1  0
 11 12  1  0
 12 13  1  0
 12 14  1  0
 11 15  1  0
 15 16  1  0
  6 17  1  0
 17 18  2  0
 18 19  1  0
 19 20  1  0
 20 21  1  0
 21 22  1  0
 22 23  1  0
 23 24  1  0
 18 25  1  0
 25 26  2  0
 26 27  1  0
 27 28  2  0
 28 29  1  0
 29 30  1  0
 30 31  1  0
 31 32  1  0
 32 33  1  0
 33 34  1  0
 34 35  1  0
 35 36  1  0
 36 37  1  0
 28  3  1  0
 37 33  1  0
 26  5  1  0
 16  8  1  0
 24 19  1  0
M  END
$$$$
