
     RDKit          3D

 37 41  0  0  0  0  0  0  0  0999 V2000
  -15.0083   40.6898  -22.2159 C   0  0  0  0  0  0  0  0  0  0  0  0
  -16.0415   40.3660  -21.4686 C   0  0  0  0  0  0  0  0  0  0  0  0
  -17.3654   40.9984  -21.7047 C   0  0  0  0  0  0  0  0  0  0  0  0
  -18.4024   39.9634  -21.6940 N   0  0  0  0  0  0  0  0  0  0  0  0
  -18.3284   38.7640  -21.1365 C   0  0  0  0  0  0  0  0  0  0  0  0
  -17.3496   38.3111  -20.5190 O   0  0  0  0  0  0  0  0  0  0  0  0
  -19.5213   38.1261  -21.3673 C   0  0  0  0  0  0  0  0  0  0  0  0
  -20.0529   36.8865  -21.0514 C   0  0  0  0  0  0  0  0  0  0  0  0
  -21.2958   36.6169  -21.4654 N   0  0  0  0  0  0  0  0  0  0  0  0
  -22.0930   37.4245  -22.1608 C   0  0  0  0  0  0  0  0  0  0  0  0
  -23.4113   37.1204  -22.5914 N   0  0  0  0  0  0  0  0  0  0  0  0
  -24.2585   38.0003  -23.2971 C   0  0  0  0  0  0  0  0  0  0  0  0
  -25.2667   37.6155  -24.1513 C   0  0  0  0  0  0  0  0  0  0  0  0
  -26.0577   38.5540  -24.8285 C   0  0  0  0  0  0  0  0  0  0  0  0
  -25.8736   39.9067  -24.6790 C   0  0  0  0  0  0  0  0  0  0  0  0
  -26.6773   40.8642  -25.3578 N   0  0  0  0  0  0  0  0  0  0  0  0
  -26.2454   42.2501  -25.3558 C   0  0  0  0  0  0  0  0  0  0  0  0
  -27.0036   42.9513  -26.4753 C   0  0  0  0  0  0  0  0  0  0  0  0
  -28.4214   42.9512  -26.1760 N   0  0  0  0  0  0  0  0  0  0  0  0
  -28.6104   43.8130  -25.0248 C   0  0  0  0  0  0  0  0  0  0  0  0
  -28.9286   41.6532  -25.8703 C   0  0  0  0  0  0  0  0  0  0  0  0
  -27.9077   40.5485  -26.0494 C   0  0  0  0  0  0  0  0  0  0  0  0
  -24.8612   40.2861  -23.8206 C   0  0  0  0  0  0  0  0  0  0  0  0
  -24.0806   39.3854  -23.1529 C   0  0  0  0  0  0  0  0  0  0  0  0
  -21.5598   38.6468  -22.4683 N   0  0  0  0  0  0  0  0  0  0  0  0
  -20.3240   38.9919  -22.0905 C   0  0  0  0  0  0  0  0  0  0  0  0
  -19.5784   40.1227  -22.2672 N   0  0  0  0  0  0  0  0  0  0  0  0
  -20.0845   41.2556  -22.9793 C   0  0  0  0  0  0  0  0  0  0  0  0
  -21.1425   41.9886  -22.4670 C   0  0  0  0  0  0  0  0  0  0  0  0
  -21.6372   43.0781  -23.1412 C   0  0  0  0  0  0  0  0  0  0  0  0
  -21.0638   43.4417  -24.3496 C   0  0  0  0  0  0  0  0  0  0  0  0
  -20.0029   42.6918  -24.8451 C   0  0  0  0  0  0  0  0  0  0  0  0
  -19.3704   43.0601  -26.1377 C   0  0  0  0  0  0  0  0  0  0  0  0
  -19.2485   44.5619  -26.2373 C   0  0  0  0  0  0  0  0  0  0  0  0
  -18.0344   42.3822  -26.3210 C   0  0  0  0  0  0  0  0  0  0  0  0
  -20.2009   42.6313  -27.1726 O   0  0  0  0  0  0  0  0  0  0  0  0
  -19.5465   41.6299  -24.1537 N   0  0  0  0  0  0  0  0  0  0  0  0
  1  2  2  0
  2  3  1  0
  3  4  1  0
  4  5  1  0
  5  6  2  0
  5  7  1  0
  7  8  2  0
  8  9  1  0
  9 10  2  0
 10 11  1  0
 11 12  1  0
 12 13  2  0
 13 14  1  0
 14 15  2  0
 15 16  1  0
 16 17  1  0
 17 18  1  0
 18 19  1  0
 19 20  1  0
 19 21  1  0
 21 22  1  0
 15 23  1  0
 23 24  2  0
 10 25  1  0
 25 26  2  0
 26 27  1  0
 27 28  1  0
 28 29  2  0
 29 30  1  0
 30 31  2  0
 31 32  1  0
 32 33  1  0
 33 34  1  0
 33 35  1  0
 33 36  1  0
 32 37  2  0
 27  4  1  0
 37 28  1  0
 26  7  1  0
 24 12  1  0
 22 16  1  0
M  END
$$$$
