
     RDKit          3D

 26 28  0  0  0  0  0  0  0  0999 V2000
  -19.1022   37.7332  -25.7287 C   0  0  0  0  0  0  0  0  0  0  0  0
  -18.9621   37.3698  -24.2890 C   0  0  0  0  0  0  0  0  0  0  0  0
  -17.7733   37.9427  -23.6125 C   0  0  1  0  0  0  0  0  0  0  0  0
  -18.0838   39.1497  -22.7577 C   0  0  1  0  0  0  0  0  0  0  0  0
  -18.9564   40.1827  -23.3670 C   0  0  0  0  0  0  0  0  0  0  0  0
  -19.2099   41.3360  -22.7231 O   0  0  0  0  0  0  0  0  0  0  0  0
  -18.6270   42.2651  -21.9536 C   0  0  0  0  0  0  0  0  0  0  0  0
  -17.4578   42.8283  -22.2985 N   0  0  0  0  0  0  0  0  0  0  0  0
  -16.8446   43.7552  -21.5638 C   0  0  0  0  0  0  0  0  0  0  0  0
  -17.4178   44.1765  -20.3837 C   0  0  0  0  0  0  0  0  0  0  0  0
  -18.6182   43.6215  -19.9960 C   0  0  0  0  0  0  0  0  0  0  0  0
  -19.1843   44.0539  -18.8069 C   0  0  0  0  0  0  0  0  0  0  0  0
  -20.3967   43.5288  -18.3639 C   0  0  0  0  0  0  0  0  0  0  0  0
  -20.9687   43.9958  -17.1188 C   0  0  0  0  0  0  0  0  0  0  0  0
  -20.7090   45.3204  -16.6767 N   0  0  0  0  0  0  0  0  0  0  0  0
  -21.6992   43.2879  -16.3837 O   0  0  0  0  0  0  0  0  0  0  0  0
  -21.0076   42.5729  -19.1429 C   0  0  0  0  0  0  0  0  0  0  0  0
  -22.2124   42.0356  -18.7253 O   0  0  0  0  0  0  0  0  0  0  0  0
  -22.8213   40.9499  -19.4206 C   0  0  0  0  0  0  0  0  0  0  0  0
  -20.4288   42.1432  -20.3407 C   0  0  0  0  0  0  0  0  0  0  0  0
  -19.2456   42.6693  -20.7532 C   0  0  0  0  0  0  0  0  0  0  0  0
  -18.8656   38.4822  -21.6866 N   0  0  0  0  0  0  0  0  0  0  0  0
  -18.3424   37.1636  -21.5210 C   0  0  0  0  0  0  0  0  0  0  0  0
  -18.7959   36.3529  -20.6755 O   0  0  0  0  0  0  0  0  0  0  0  0
  -17.2491   37.0306  -22.5030 C   0  0  1  0  0  0  0  0  0  0  0  0
  -16.9918   35.7758  -22.9128 F   0  0  0  0  0  0  0  0  0  0  0  0
  1  2  1  0
  3  2  1  1
  3  4  1  0
  4  5  1  6
  5  6  1  0
  6  7  1  0
  7  8  2  0
  8  9  1  0
  9 10  2  0
 10 11  1  0
 11 12  2  0
 12 13  1  0
 13 14  1  0
 14 15  1  0
 14 16  2  0
 13 17  2  0
 17 18  1  0
 18 19  1  0
 17 20  1  0
 20 21  2  0
  4 22  1  0
 22 23  1  0
 23 24  2  0
 23 25  1  0
 25 26  1  6
 25  3  1  0
 21  7  1  0
 21 11  1  0
M  END
$$$$
