
     RDKit          3D

 27 29  0  0  0  0  0  0  0  0999 V2000
  -13.9149    1.4683  -32.2542 C   0  0  0  0  0  0  0  0  0  0  0  0
  -13.9745    0.5938  -33.4478 C   0  0  2  0  0  0  0  0  0  0  0  0
  -14.7475    1.1609  -34.5975 C   0  0  0  0  0  0  0  0  0  0  0  0
  -16.2130    1.1616  -34.3424 C   0  0  0  0  0  0  0  0  0  0  0  0
  -16.7745   -0.1244  -33.8493 C   0  0  1  0  0  0  0  0  0  0  0  0
  -15.9662   -0.6465  -32.6629 C   0  0  1  0  0  0  0  0  0  0  0  0
  -16.4952   -1.9482  -32.1550 C   0  0  0  0  0  0  0  0  0  0  0  0
  -17.9772   -1.8003  -31.9504 C   0  0  0  0  0  0  0  0  0  0  0  0
  -18.5163   -2.0667  -30.9018 O   0  0  0  0  0  0  0  0  0  0  0  0
  -18.7550   -1.3076  -33.1063 C   0  0  1  0  0  0  0  0  0  0  0  0
  -20.2322   -1.3192  -32.8761 C   0  0  0  0  0  0  0  0  0  0  0  0
  -20.8731   -0.8529  -34.1569 C   0  0  0  0  0  0  0  0  0  0  0  0
  -21.7734   -1.5766  -34.7445 N   0  0  0  0  0  0  0  0  0  0  0  0
  -22.3297   -1.1108  -35.9098 O   0  0  0  0  0  0  0  0  0  0  0  0
  -23.7239   -0.8018  -35.9790 C   0  0  0  0  0  0  0  0  0  0  0  0
  -24.0811   -0.3084  -37.3767 C   0  0  0  0  0  0  0  0  0  0  0  0
  -23.7863   -1.3161  -38.3736 N   0  0  0  0  0  0  0  0  0  0  0  0
  -20.4109    0.4527  -34.6756 C   0  0  0  0  0  0  0  0  0  0  0  0
  -18.9166    0.5503  -34.7606 C   0  0  0  0  0  0  0  0  0  0  0  0
  -18.2281    0.0532  -33.4962 C   0  0  2  0  0  0  0  0  0  0  0  0
  -18.4637    1.0780  -32.4291 C   0  0  0  0  0  0  0  0  0  0  0  0
  -14.5773   -0.7830  -33.1530 C   0  0  2  0  0  0  0  0  0  0  0  0
  -13.5854   -1.3351  -32.2079 C   0  0  0  0  0  0  0  0  0  0  0  0
  -12.2624   -0.9130  -32.8129 C   0  0  0  0  0  0  0  0  0  0  0  0
  -12.5974    0.1690  -33.8016 C   0  0  0  0  0  0  0  0  0  0  0  0
  -11.8686    0.5796  -34.6868 O   0  0  0  0  0  0  0  0  0  0  0  0
  -18.4329   -0.3712  -34.1792 Cl  0  0  0  0  0  0  0  0  0  0  0  0
  2  1  1  1
  2  3  1  0
  3  4  1  0
  5  4  1  1
  5  6  1  0
  6  7  1  6
  7  8  1  0
  8  9  2  0
  8 10  1  0
 10 11  1  1
 11 12  1  0
 12 13  2  0
 13 14  1  0
 14 15  1  0
 15 16  1  0
 16 17  1  0
 12 18  1  0
 18 19  1  0
 19 20  1  0
 20 21  1  1
  6 22  1  0
 22 23  1  1
 23 24  1  0
 24 25  1  0
 25 26  2  0
 22  2  1  0
 25  2  1  0
 20  5  1  0
 20 10  1  0
M  END
$$$$
