
     RDKit          3D

 34 38  0  0  0  0  0  0  0  0999 V2000
  -17.6092   19.9246  -38.3907 C   0  0  0  0  0  0  0  0  0  0  0  0
  -18.0769   20.3901  -39.6811 N   0  0  0  0  0  0  0  0  0  0  0  0
  -19.3677   20.9742  -39.7960 C   0  0  0  0  0  0  0  0  0  0  0  0
  -19.6376   21.7902  -40.8404 N   0  0  0  0  0  0  0  0  0  0  0  0
  -20.8371   22.3767  -41.0131 C   0  0  0  0  0  0  0  0  0  0  0  0
  -21.0416   23.2541  -42.1766 C   0  0  0  0  0  0  0  0  0  0  0  0
  -20.9306   22.8137  -43.4552 C   0  0  0  0  0  0  0  0  0  0  0  0
  -21.1386   23.6932  -44.5244 C   0  0  0  0  0  0  0  0  0  0  0  0
  -21.4568   25.0098  -44.2963 C   0  0  0  0  0  0  0  0  0  0  0  0
  -21.7196   26.1107  -45.1059 C   0  0  0  0  0  0  0  0  0  0  0  0
  -21.7077   26.0796  -46.5172 N   0  0  0  0  0  0  0  0  0  0  0  0
  -21.9739   27.1520  -44.2889 N   0  0  0  0  0  0  0  0  0  0  0  0
  -21.8899   26.7849  -43.0305 N   0  0  0  0  0  0  0  0  0  0  0  0
  -21.5708   25.4638  -43.0123 C   0  0  0  0  0  0  0  0  0  0  0  0
  -21.3619   24.5800  -41.9784 C   0  0  0  0  0  0  0  0  0  0  0  0
  -21.8108   22.1333  -40.0965 C   0  0  0  0  0  0  0  0  0  0  0  0
  -21.5757   21.2915  -38.9940 C   0  0  0  0  0  0  0  0  0  0  0  0
  -22.6281   21.0732  -38.0859 N   0  0  0  0  0  0  0  0  0  0  0  0
  -22.3883   21.0556  -36.6390 C   0  0  0  0  0  0  0  0  0  0  0  0
  -23.6844   21.5086  -35.9702 C   0  0  1  0  0  0  0  0  0  0  0  0
  -23.4373   21.8815  -34.5657 C   0  0  0  0  0  0  0  0  0  0  0  0
  -22.4203   22.5343  -34.2762 O   0  0  0  0  0  0  0  0  0  0  0  0
  -24.2964   21.5415  -33.4953 N   0  0  0  0  0  0  0  0  0  0  0  0
  -25.2554   22.4488  -32.9787 C   0  0  0  0  0  0  0  0  0  0  0  0
  -24.6852   23.0330  -31.6980 C   0  0  0  0  0  0  0  0  0  0  0  0
  -25.7379   23.2747  -30.6467 C   0  0  0  0  0  0  0  0  0  0  0  0
  -26.4392   21.9963  -30.2401 C   0  0  0  0  0  0  0  0  0  0  0  0
  -26.4776   21.0101  -31.4161 C   0  0  0  0  0  0  0  0  0  0  0  0
  -26.5926   21.8519  -32.6583 C   0  0  0  0  0  0  0  0  0  0  0  0
  -24.2521   22.6484  -36.7858 C   0  0  0  0  0  0  0  0  0  0  0  0
  -24.8439   22.0391  -38.0609 C   0  0  0  0  0  0  0  0  0  0  0  0
  -23.9805   20.8487  -38.5030 C   0  0  1  0  0  0  0  0  0  0  0  0
  -24.1087   20.6857  -39.9968 C   0  0  0  0  0  0  0  0  0  0  0  0
  -20.3510   20.7563  -38.9110 N   0  0  0  0  0  0  0  0  0  0  0  0
  1  2  1  0
  2  3  1  0
  3  4  2  0
  4  5  1  0
  5  6  1  0
  6  7  2  0
  7  8  1  0
  8  9  2  0
  9 10  1  0
 10 11  1  0
 10 12  2  0
 12 13  1  0
 13 14  1  0
 14 15  2  0
  5 16  2  0
 16 17  1  0
 17 18  1  0
 18 19  1  0
 19 20  1  0
 20 21  1  1
 21 22  2  0
 21 23  1  0
 23 24  1  0
 24 25  1  0
 25 26  1  0
 26 27  1  0
 27 28  1  0
 28 29  1  0
 20 30  1  0
 30 31  1  0
 31 32  1  0
 32 33  1  6
 17 34  2  0
 34  3  1  0
 15  6  1  0
 32 18  1  0
 14  9  1  0
 29 24  1  0
M  END
$$$$
