
     RDKit          3D

 15 16  0  0  0  0  0  0  0  0999 V2000
  -25.6647   17.1776  -21.5446 N   0  0  0  0  0  0  0  0  0  0  0  0
  -26.9192   16.6088  -21.8554 C   0  0  0  0  0  0  0  0  0  0  0  0
  -27.9804   17.4528  -22.0284 N   0  0  0  0  0  0  0  0  0  0  0  0
  -29.2025   16.9854  -22.3254 C   0  0  0  0  0  0  0  0  0  0  0  0
  -29.3459   15.6188  -22.4492 C   0  0  0  0  0  0  0  0  0  0  0  0
  -28.2973   14.7404  -22.2813 C   0  0  0  0  0  0  0  0  0  0  0  0
  -28.4763   13.2749  -22.4196 C   0  0  0  0  0  0  0  0  0  0  0  0
  -29.5873   12.8425  -22.9523 C   0  0  0  0  0  0  0  0  0  0  0  0
  -29.8149   11.4306  -23.1978 C   0  0  0  0  0  0  0  0  0  0  0  0
  -30.7094   10.7270  -22.3986 C   0  0  0  0  0  0  0  0  0  0  0  0
  -30.9481    9.3935  -22.6025 C   0  0  0  0  0  0  0  0  0  0  0  0
  -30.2871    8.7345  -23.6222 C   0  0  0  0  0  0  0  0  0  0  0  0
  -29.3915    9.3871  -24.4413 C   0  0  0  0  0  0  0  0  0  0  0  0
  -29.1766   10.7518  -24.1980 C   0  0  0  0  0  0  0  0  0  0  0  0
  -27.1005   15.2703  -21.9856 N   0  0  0  0  0  0  0  0  0  0  0  0
  1  2  1  0
  2  3  2  0
  3  4  1  0
  4  5  2  0
  5  6  1  0
  6  7  1  0
  7  8  2  0
  8  9  1  0
  9 10  2  0
 10 11  1  0
 11 12  2  0
 12 13  1  0
 13 14  2  0
  6 15  2  0
 15  2  1  0
 14  9  1  0
M  END
$$$$
