
     RDKit          3D

 18 18  0  0  0  0  0  0  0  0999 V2000
  -18.5940   40.7274  -21.7629 Cl  0  0  0  0  0  0  0  0  0  0  0  0
  -18.3844   39.2671  -25.3125 N   0  0  0  0  0  0  0  0  0  0  0  0
  -18.7646   40.5124  -24.7102 C   0  0  0  0  0  0  0  0  0  0  0  0
  -18.3541   40.5100  -23.2248 C   0  0  0  0  0  0  0  0  0  0  0  0
  -18.9750   39.4677  -22.5151 N   0  0  0  0  0  0  0  0  0  0  0  0
  -18.6658   39.2727  -20.8629 S   0  0  0  0  0  6  0  0  0  0  0  0
  -17.1890   38.9082  -20.7171 O   0  0  0  0  0  0  0  0  0  0  0  0
  -19.3928   38.0393  -20.3216 O   0  0  0  0  0  0  0  0  0  0  0  0
  -19.1249   40.6072  -19.8522 C   0  0  0  0  0  0  0  0  0  0  0  0
  -20.3244   40.5373  -19.1189 C   0  0  0  0  0  0  0  0  0  0  0  0
  -20.7587   41.6032  -18.3805 C   0  0  0  0  0  0  0  0  0  0  0  0
  -20.0347   42.7687  -18.3357 C   0  0  0  0  0  0  0  0  0  0  0  0
  -18.8524   42.8845  -19.0354 C   0  0  0  0  0  0  0  0  0  0  0  0
  -18.1554   44.0699  -18.9291 C   0  0  0  0  0  0  0  0  0  0  0  0
  -16.9888   44.1611  -19.5902 N   0  0  0  0  0  0  0  0  0  0  0  0
  -16.5386   43.1247  -20.3196 C   0  0  0  0  0  0  0  0  0  0  0  0
  -17.2271   41.9327  -20.4349 C   0  0  0  0  0  0  0  0  0  0  0  0
  -18.4197   41.7878  -19.7854 C   0  0  0  0  0  0  0  0  0  0  0  0
  2  3  1  0
  3  4  1  0
  4  5  1  0
  5  6  1  0
  6  7  2  0
  6  8  2  0
  6  9  1  0
  9 10  2  0
 10 11  1  0
 11 12  2  0
 12 13  1  0
 13 14  2  0
 14 15  1  0
 15 16  2  0
 16 17  1  0
 17 18  2  0
 18  9  1  0
 18 13  1  0
M  END
$$$$
