
     RDKit          3D

 12 13  0  0  0  0  0  0  0  0999 V2000
  -20.5563   39.6602  -19.0256 O   0  0  0  0  0  0  0  0  0  0  0  0
  -19.1005   39.8437  -19.0989 B   0  0  0  0  0  0  0  0  0  0  0  0
  -18.3417   38.6477  -19.5243 O   0  0  0  0  0  0  0  0  0  0  0  0
  -18.5965   41.2758  -19.4119 C   0  0  0  0  0  0  0  0  0  0  0  0
  -19.2837   42.4293  -19.7004 C   0  0  0  0  0  0  0  0  0  0  0  0
  -18.5398   43.5334  -19.9298 C   0  0  0  0  0  0  0  0  0  0  0  0
  -19.0681   44.8155  -20.2426 C   0  0  0  0  0  0  0  0  0  0  0  0
  -18.2093   45.8688  -20.4565 C   0  0  0  0  0  0  0  0  0  0  0  0
  -16.8505   45.7749  -20.3896 C   0  0  0  0  0  0  0  0  0  0  0  0
  -16.3330   44.5359  -20.0871 C   0  0  0  0  0  0  0  0  0  0  0  0
  -17.2116   43.4754  -19.8722 C   0  0  0  0  0  0  0  0  0  0  0  0
  -16.8437   41.7769  -19.4688 S   0  0  0  0  0  0  0  0  0  0  0  0
  1  2  1  0
  2  3  1  0
  2  4  1  0
  4  5  2  0
  5  6  1  0
  6  7  2  0
  7  8  1  0
  8  9  2  0
  9 10  1  0
 10 11  2  0
 11 12  1  0
 12  4  1  0
 11  6  1  0
M  END
$$$$
