
     RDKit          3D

 25 27  0  0  0  0  0  0  0  0999 V2000
  -45.3835    3.9289  -38.9244 C   0  0  0  0  0  0  0  0  0  0  0  0
  -45.9729    5.0376  -39.6316 O   0  0  0  0  0  0  0  0  0  0  0  0
  -46.0551    6.2894  -39.0423 C   0  0  0  0  0  0  0  0  0  0  0  0
  -45.4962    6.6061  -37.8300 C   0  0  0  0  0  0  0  0  0  0  0  0
  -45.6355    7.8975  -37.3073 C   0  0  0  0  0  0  0  0  0  0  0  0
  -45.1281    8.2221  -36.0213 N   0  0  0  0  0  0  0  0  0  0  0  0
  -44.3250    7.2369  -35.3019 C   0  0  0  0  0  0  0  0  0  0  0  0
  -43.9938    6.2333  -35.9599 O   0  0  0  0  0  0  0  0  0  0  0  0
  -43.9387    7.4138  -33.9111 C   0  0  0  0  0  0  0  0  0  0  0  0
  -43.4610    8.7257  -33.4935 C   0  0  0  0  0  0  0  0  0  0  0  0
  -44.2433    9.5600  -32.7520 N   0  0  0  0  0  0  0  0  0  0  0  0
  -43.9095   10.7182  -32.2915 N   0  0  0  0  0  0  0  0  0  0  0  0
  -44.8309   11.5618  -31.5059 C   0  0  0  0  0  0  0  0  0  0  0  0
  -42.6705   11.1726  -32.5536 C   0  0  0  0  0  0  0  0  0  0  0  0
  -42.2595   12.2808  -32.1467 O   0  0  0  0  0  0  0  0  0  0  0  0
  -41.7703   10.4086  -33.3096 C   0  0  0  0  0  0  0  0  0  0  0  0
  -40.4942   10.8716  -33.6093 C   0  0  0  0  0  0  0  0  0  0  0  0
  -39.6457   10.1230  -34.3639 C   0  0  0  0  0  0  0  0  0  0  0  0
  -40.0169    8.9017  -34.8483 C   0  0  0  0  0  0  0  0  0  0  0  0
  -41.2870    8.4439  -34.5472 C   0  0  0  0  0  0  0  0  0  0  0  0
  -42.1918    9.1613  -33.7828 C   0  0  0  0  0  0  0  0  0  0  0  0
  -46.3396    8.8053  -38.0609 C   0  0  0  0  0  0  0  0  0  0  0  0
  -46.9001    8.4813  -39.2865 C   0  0  0  0  0  0  0  0  0  0  0  0
  -46.7736    7.2335  -39.7978 C   0  0  0  0  0  0  0  0  0  0  0  0
  -47.4943    6.8374  -41.3397 Cl  0  0  0  0  0  0  0  0  0  0  0  0
  1  2  1  0
  2  3  1  0
  3  4  2  0
  4  5  1  0
  5  6  1  0
  6  7  1  0
  7  8  2  0
  7  9  1  0
  9 10  1  0
 10 11  2  0
 11 12  1  0
 12 13  1  0
 12 14  1  0
 14 15  2  0
 14 16  1  0
 16 17  2  0
 17 18  1  0
 18 19  2  0
 19 20  1  0
 20 21  2  0
  5 22  2  0
 22 23  1  0
 23 24  2  0
 24 25  1  0
 24  3  1  0
 21 10  1  0
 21 16  1  0
M  END
$$$$
