
     RDKit          3D

 33 35  0  0  0  0  0  0  0  0999 V2000
  -12.4804   16.5038  -38.4029 C   0  0  0  0  0  0  0  0  0  0  0  0
  -13.1105   17.0248  -39.6290 C   0  0  0  0  0  0  0  0  0  0  0  0
  -13.7009   18.2615  -39.6587 O   0  0  0  0  0  0  0  0  0  0  0  0
  -14.4584   18.8969  -40.5227 C   0  0  0  0  0  0  0  0  0  0  0  0
  -14.1551   19.7800  -41.5038 C   0  0  0  0  0  0  0  0  0  0  0  0
  -15.0055   20.3928  -42.4007 C   0  0  0  0  0  0  0  0  0  0  0  0
  -14.4857   21.1454  -43.4327 N   0  0  0  0  0  0  0  0  0  0  0  0
  -15.3287   21.5583  -44.3627 C   0  0  0  0  0  0  0  0  0  0  0  0
  -16.7415   21.2690  -44.3612 C   0  0  0  0  0  0  0  0  0  0  0  0
  -17.3893   21.4243  -45.5113 C   0  0  0  0  0  0  0  0  0  0  0  0
  -18.0231   21.5754  -46.6293 N   0  0  0  0  0  0  0  0  0  0  0  0
  -17.2001   20.5233  -43.2749 C   0  0  0  0  0  0  0  0  0  0  0  0
  -18.5585   20.2444  -43.1168 N   0  0  0  0  0  0  0  0  0  0  0  0
  -19.3475   21.2097  -42.4740 C   0  0  0  0  0  0  0  0  0  0  0  0
  -20.6572   20.8435  -42.0188 C   0  0  0  0  0  0  0  0  0  0  0  0
  -21.5271   21.7259  -41.6114 C   0  0  0  0  0  0  0  0  0  0  0  0
  -21.3411   23.1109  -41.5543 C   0  0  0  0  0  0  0  0  0  0  0  0
  -22.2505   23.9555  -41.1780 F   0  0  0  0  0  0  0  0  0  0  0  0
  -20.0212   23.4767  -41.9985 C   0  0  0  0  0  0  0  0  0  0  0  0
  -19.6328   25.2105  -41.9018 Cl  0  0  0  0  0  0  0  0  0  0  0  0
  -19.1464   22.5652  -42.4138 C   0  0  0  0  0  0  0  0  0  0  0  0
  -16.3068   20.0892  -42.2985 C   0  0  0  0  0  0  0  0  0  0  0  0
  -16.7557   19.2110  -41.3209 C   0  0  0  0  0  0  0  0  0  0  0  0
  -15.9156   18.6208  -40.4459 C   0  0  0  0  0  0  0  0  0  0  0  0
  -16.3211   17.7809  -39.4085 N   0  0  0  0  0  0  0  0  0  0  0  0
  -17.5338   17.6687  -38.7455 C   0  0  0  0  0  0  0  0  0  0  0  0
  -18.3542   16.7705  -39.0486 O   0  0  0  0  0  0  0  0  0  0  0  0
  -17.8724   18.6510  -37.6612 C   0  0  0  0  0  0  0  0  0  0  0  0
  -19.0572   18.8505  -37.1909 C   0  0  0  0  0  0  0  0  0  0  0  0
  -19.4068   19.7017  -36.0562 C   0  0  0  0  0  0  0  0  0  0  0  0
  -20.6652   19.5011  -35.3869 N   0  0  0  0  0  0  0  0  0  0  0  0
  -20.3633   18.3262  -34.4884 C   0  0  0  0  0  0  0  0  0  0  0  0
  -20.8234   20.5694  -34.3327 C   0  0  0  0  0  0  0  0  0  0  0  0
  1  2  1  0
  2  3  1  0
  3  4  1  0
  4  5  2  0
  5  6  1  0
  6  7  2  0
  7  8  1  0
  8  9  2  0
  9 10  1  0
 10 11  3  0
  9 12  1  0
 12 13  1  0
 13 14  1  0
 14 15  2  0
 15 16  1  0
 16 17  2  0
 17 18  1  0
 17 19  1  0
 19 20  1  0
 19 21  2  0
 12 22  2  0
 22 23  1  0
 23 24  2  0
 24 25  1  0
 25 26  1  0
 26 27  2  0
 26 28  1  0
 28 29  2  0
 29 30  1  0
 30 31  1  0
 31 32  1  0
 31 33  1  0
 24  4  1  0
 22  6  1  0
 21 14  1  0
M  END
$$$$
