
     RDKit          3D

 26 30  0  0  0  0  0  0  0  0999 V2000
  -29.3127   17.9265  -23.8750 C   0  0  0  0  0  0  0  0  0  0  0  0
  -29.3084   16.9559  -22.7294 C   0  0  0  0  0  0  0  0  0  0  0  0
  -28.8186   15.5780  -23.0987 C   0  0  1  0  0  0  0  0  0  0  0  0
  -29.8002   15.0399  -23.9580 O   0  0  0  0  0  0  0  0  0  0  0  0
  -27.5560   15.7053  -23.8436 C   0  0  0  0  0  0  0  0  0  0  0  0
  -27.6040   15.8415  -25.0953 O   0  0  0  0  0  0  0  0  0  0  0  0
  -26.3663   15.6729  -23.1614 O   0  0  0  0  0  0  0  0  0  0  0  0
  -26.2537   15.3320  -21.8209 C   0  0  0  0  0  0  0  0  0  0  0  0
  -27.4222   14.5919  -21.3114 C   0  0  0  0  0  0  0  0  0  0  0  0
  -28.6416   14.7086  -21.9173 C   0  0  0  0  0  0  0  0  0  0  0  0
  -29.7667   14.0165  -21.4516 C   0  0  0  0  0  0  0  0  0  0  0  0
  -29.5860   13.2066  -20.3464 C   0  0  0  0  0  0  0  0  0  0  0  0
  -28.4075   13.0712  -19.7321 N   0  0  0  0  0  0  0  0  0  0  0  0
  -27.3283   13.7507  -20.1987 C   0  0  0  0  0  0  0  0  0  0  0  0
  -26.1983   13.6584  -19.6577 O   0  0  0  0  0  0  0  0  0  0  0  0
  -28.5163   12.1602  -18.6057 C   0  0  0  0  0  0  0  0  0  0  0  0
  -29.9369   11.7520  -18.6143 C   0  0  0  0  0  0  0  0  0  0  0  0
  -30.6904   10.8960  -17.7996 C   0  0  0  0  0  0  0  0  0  0  0  0
  -32.0257   10.7429  -18.1030 C   0  0  0  0  0  0  0  0  0  0  0  0
  -32.8075    9.8952  -17.3094 C   0  0  0  0  0  0  0  0  0  0  0  0
  -34.1449    9.7243  -17.5908 C   0  0  0  0  0  0  0  0  0  0  0  0
  -34.7688   10.3623  -18.6416 C   0  0  0  0  0  0  0  0  0  0  0  0
  -34.0050   11.1983  -19.4268 C   0  0  0  0  0  0  0  0  0  0  0  0
  -32.6438   11.3838  -19.1554 C   0  0  0  0  0  0  0  0  0  0  0  0
  -31.8916   12.1966  -19.9152 N   0  0  0  0  0  0  0  0  0  0  0  0
  -30.5802   12.3724  -19.6497 C   0  0  0  0  0  0  0  0  0  0  0  0
  1  2  1  0
  2  3  1  0
  3  4  1  6
  3  5  1  0
  5  6  2  0
  5  7  1  0
  7  8  1  0
  8  9  1  0
  9 10  2  0
 10 11  1  0
 11 12  2  0
 12 13  1  0
 13 14  1  0
 14 15  2  0
 13 16  1  0
 16 17  1  0
 17 18  2  0
 18 19  1  0
 19 20  2  0
 20 21  1  0
 21 22  2  0
 22 23  1  0
 23 24  2  0
 24 25  1  0
 25 26  2  0
 10  3  1  0
 26 12  1  0
 14  9  1  0
 26 17  1  0
 24 19  1  0
M  END
$$$$
