
     RDKit          3D

 12 13  0  0  0  0  0  0  0  0999 V2000
  -20.3032   34.0280  -23.0611 C   0  0  0  0  0  0  0  0  0  0  0  0
  -19.0116   34.4337  -23.3144 C   0  0  0  0  0  0  0  0  0  0  0  0
  -18.6162   35.7160  -22.9333 C   0  0  0  0  0  0  0  0  0  0  0  0
  -19.4909   36.5505  -22.3225 C   0  0  0  0  0  0  0  0  0  0  0  0
  -19.1370   37.9166  -21.8949 C   0  0  0  0  0  0  0  0  0  0  0  0
  -17.8588   38.4032  -21.9613 C   0  0  0  0  0  0  0  0  0  0  0  0
  -17.5542   39.7067  -21.5470 C   0  0  0  0  0  0  0  0  0  0  0  0
  -18.5510   40.5230  -21.0621 C   0  0  0  0  0  0  0  0  0  0  0  0
  -19.8279   40.0043  -21.0076 C   0  0  0  0  0  0  0  0  0  0  0  0
  -20.0938   38.7491  -21.4117 N   0  0  0  0  0  0  0  0  0  0  0  0
  -20.7452   36.1138  -22.0934 N   0  0  0  0  0  0  0  0  0  0  0  0
  -21.1516   34.8988  -22.4443 C   0  0  0  0  0  0  0  0  0  0  0  0
  1  2  2  0
  2  3  1  0
  3  4  2  0
  4  5  1  0
  5  6  2  0
  6  7  1  0
  7  8  2  0
  8  9  1  0
  9 10  2  0
  4 11  1  0
 11 12  2  0
 12  1  1  0
 10  5  1  0
M  END
$$$$
