
     RDKit          3D

 20 21  0  0  0  0  0  0  0  0999 V2000
  -29.8412   19.6418  -25.0854 C   0  0  0  0  0  0  0  0  0  0  0  0
  -29.0040   18.8011  -24.1889 C   0  0  0  0  0  0  0  0  0  0  0  0
  -27.6644   18.8780  -24.0243 N   0  0  0  0  0  0  0  0  0  0  0  0
  -27.2661   17.9866  -23.1552 N   0  0  0  0  0  0  0  0  0  0  0  0
  -28.3391   17.2801  -22.7088 C   0  0  0  0  0  0  0  0  0  0  0  0
  -28.3026   15.9546  -21.5113 S   0  0  0  0  0  0  0  0  0  0  0  0
  -26.6416   15.6483  -20.9087 C   0  0  0  0  0  0  0  0  0  0  0  0
  -25.9119   14.8379  -21.9099 C   0  0  0  0  0  0  0  0  0  0  0  0
  -26.3381   14.7981  -23.0823 O   0  0  0  0  0  0  0  0  0  0  0  0
  -24.7403   14.0870  -21.6332 N   0  0  0  0  0  0  0  0  0  0  0  0
  -24.0356   13.2967  -22.5847 C   0  0  0  0  0  0  0  0  0  0  0  0
  -22.5741   13.1207  -22.2924 C   0  0  0  0  0  0  0  0  0  0  0  0
  -22.3200   12.4199  -20.9705 C   0  0  0  0  0  0  0  0  0  0  0  0
  -22.8558   10.9966  -21.1575 C   0  0  0  0  0  0  0  0  0  0  0  0
  -24.3452   11.1509  -21.3933 C   0  0  0  0  0  0  0  0  0  0  0  0
  -24.9055    9.7452  -21.5086 C   0  0  0  0  0  0  0  0  0  0  0  0
  -24.6630   11.9186  -22.6390 C   0  0  0  0  0  0  0  0  0  0  0  0
  -26.1879   12.0375  -22.6982 C   0  0  0  0  0  0  0  0  0  0  0  0
  -29.3933   17.8014  -23.3602 N   0  0  0  0  0  0  0  0  0  0  0  0
  -30.7078   17.3834  -23.2147 N   0  0  0  0  0  0  0  0  0  0  0  0
  1  2  1  0
  2  3  2  0
  3  4  1  0
  4  5  2  0
  5  6  1  0
  6  7  1  0
  7  8  1  0
  8  9  2  0
  8 10  1  0
 10 11  1  0
 11 12  1  0
 12 13  1  0
 13 14  1  0
 14 15  1  0
 15 16  1  0
 15 17  1  0
 17 18  1  0
  5 19  1  0
 19 20  1  0
 19  2  1  0
 17 11  1  0
M  END
$$$$
