
     RDKit          3D

 18 20  0  0  0  0  0  0  0  0999 V2000
  -16.9016   36.5811  -21.4021 O   0  0  0  0  0  0  0  0  0  0  0  0
  -18.1410   36.6178  -21.5998 C   0  0  0  0  0  0  0  0  0  0  0  0
  -18.8654   35.5032  -21.5891 N   0  0  0  0  0  0  0  0  0  0  0  0
  -20.1999   35.4865  -21.7958 C   0  0  0  0  0  0  0  0  0  0  0  0
  -20.8175   36.6968  -22.0268 C   0  0  0  0  0  0  0  0  0  0  0  0
  -20.1206   37.9042  -22.0521 C   0  0  0  0  0  0  0  0  0  0  0  0
  -20.7414   39.1010  -22.2822 C   0  0  0  0  0  0  0  0  0  0  0  0
  -20.0310   40.3091  -22.3055 C   0  0  0  0  0  0  0  0  0  0  0  0
  -20.7317   41.4682  -22.5438 O   0  0  0  0  0  0  0  0  0  0  0  0
  -21.2181   41.9520  -23.7584 C   0  0  0  0  0  0  0  0  0  0  0  0
  -20.8202   43.3877  -24.0092 C   0  0  0  0  0  0  0  0  0  0  0  0
  -21.0549   43.8579  -25.3908 C   0  0  0  0  0  0  0  0  0  0  0  0
  -20.8892   42.8995  -26.4297 N   0  0  0  0  0  0  0  0  0  0  0  0
  -21.5074   41.6374  -26.1778 C   0  0  0  0  0  0  0  0  0  0  0  0
  -20.8582   41.0587  -24.9278 C   0  0  0  0  0  0  0  0  0  0  0  0
  -18.6760   40.2414  -22.0862 C   0  0  0  0  0  0  0  0  0  0  0  0
  -18.0776   39.0203  -21.8570 C   0  0  0  0  0  0  0  0  0  0  0  0
  -18.7556   37.8300  -21.8306 C   0  0  0  0  0  0  0  0  0  0  0  0
  1  2  2  0
  2  3  1  0
  3  4  1  0
  4  5  2  0
  5  6  1  0
  6  7  2  0
  7  8  1  0
  8  9  1  0
  9 10  1  0
 10 11  1  0
 11 12  1  0
 12 13  1  0
 13 14  1  0
 14 15  1  0
  8 16  2  0
 16 17  1  0
 17 18  2  0
 18  2  1  0
 18  6  1  0
 15 10  1  0
M  END
$$$$
