
     RDKit          3D

 17 18  0  0  0  0  0  0  0  0999 V2000
  -22.4059   29.2792  -29.3721 C   0  0  0  0  0  0  0  0  0  0  0  0
  -22.6919   30.5179  -28.6735 N   0  0  0  0  0  0  0  0  0  0  0  0
  -24.0042   31.0850  -28.8243 C   0  0  0  0  0  0  0  0  0  0  0  0
  -21.6902   31.1272  -27.8706 C   0  0  0  0  0  0  0  0  0  0  0  0
  -21.9839   32.2664  -27.1436 C   0  0  0  0  0  0  0  0  0  0  0  0
  -21.0089   32.8632  -26.3596 C   0  0  0  0  0  0  0  0  0  0  0  0
  -19.7284   32.3550  -26.2729 C   0  0  0  0  0  0  0  0  0  0  0  0
  -18.7627   33.0615  -25.4531 C   0  0  0  0  0  0  0  0  0  0  0  0
  -19.0084   34.2439  -24.9732 C   0  0  0  0  0  0  0  0  0  0  0  0
  -20.5334   35.2267  -25.1810 S   0  0  0  0  0  0  0  0  0  0  0  0
  -19.7248   36.7924  -24.8873 C   0  0  0  0  0  0  0  0  0  0  0  0
  -20.0891   37.8933  -25.2981 O   0  0  0  0  0  0  0  0  0  0  0  0
  -18.6109   36.4572  -24.0982 N   0  0  0  0  0  0  0  0  0  0  0  0
  -18.2144   35.1192  -24.1255 C   0  0  0  0  0  0  0  0  0  0  0  0
  -17.2182   34.6441  -23.4583 O   0  0  0  0  0  0  0  0  0  0  0  0
  -19.4575   31.2221  -27.0045 C   0  0  0  0  0  0  0  0  0  0  0  0
  -20.4290   30.6157  -27.7939 C   0  0  0  0  0  0  0  0  0  0  0  0
  1  2  1  0
  2  3  1  0
  2  4  1  0
  4  5  2  0
  5  6  1  0
  6  7  2  0
  7  8  1  0
  8  9  2  0
  9 10  1  0
 10 11  1  0
 11 12  2  0
 11 13  1  0
 13 14  1  0
 14 15  2  0
  7 16  1  0
 16 17  2  0
 17  4  1  0
 14  9  1  0
M  END
$$$$
