
     RDKit          3D

 30 35  0  0  0  0  0  0  0  0999 V2000
  -25.1926   19.2200  -25.8437 O   0  0  0  0  0  0  0  0  0  0  0  0
  -26.3521   18.7810  -25.6202 C   0  0  0  0  0  0  0  0  0  0  0  0
  -27.3763   19.2844  -26.3795 O   0  0  0  0  0  0  0  0  0  0  0  0
  -26.5581   17.7726  -24.5820 C   0  0  0  0  0  0  0  0  0  0  0  0
  -25.9910   17.8791  -23.3468 C   0  0  0  0  0  0  0  0  0  0  0  0
  -26.1695   16.9472  -22.3577 C   0  0  0  0  0  0  0  0  0  0  0  0
  -26.9725   15.8471  -22.6505 C   0  0  0  0  0  0  0  0  0  0  0  0
  -27.1951   14.8645  -21.6908 C   0  0  0  0  0  0  0  0  0  0  0  0
  -27.9836   13.7765  -21.9656 C   0  0  0  0  0  0  0  0  0  0  0  0
  -28.2240   12.7382  -20.9657 C   0  0  0  0  0  0  0  0  0  0  0  0
  -27.1930   12.0024  -20.4133 C   0  0  0  0  0  0  0  0  0  0  0  0
  -27.4077   11.0207  -19.4688 C   0  0  0  0  0  0  0  0  0  0  0  0
  -28.7060   10.7398  -19.0371 C   0  0  0  0  0  0  0  0  0  0  0  0
  -28.9343    9.7561  -18.0880 O   0  0  0  0  0  0  0  0  0  0  0  0
  -29.7468   11.4609  -19.5749 C   0  0  0  0  0  0  0  0  0  0  0  0
  -31.1332   11.1963  -19.1507 C   0  0  0  0  0  0  0  0  0  0  0  0
  -31.9367   12.5066  -19.1703 C   0  0  0  0  0  0  0  0  0  0  0  0
  -33.3588   12.2510  -18.7652 C   0  0  0  0  0  0  0  0  0  0  0  0
  -33.4496   11.6094  -17.3980 C   0  0  0  0  0  0  0  0  0  0  0  0
  -32.6715   10.3210  -17.4577 C   0  0  0  0  0  0  0  0  0  0  0  0
  -33.2872    9.4156  -18.4924 C   0  0  0  0  0  0  0  0  0  0  0  0
  -33.2559   10.0809  -19.8635 C   0  0  0  0  0  0  0  0  0  0  0  0
  -34.0076   11.3655  -19.8041 C   0  0  0  0  0  0  0  0  0  0  0  0
  -31.7839   10.3011  -20.1843 C   0  0  0  0  0  0  0  0  0  0  0  0
  -31.2334   10.6580  -17.7572 C   0  0  0  0  0  0  0  0  0  0  0  0
  -29.5040   12.4490  -20.5289 C   0  0  0  0  0  0  0  0  0  0  0  0
  -28.5508   13.6836  -23.2220 C   0  0  0  0  0  0  0  0  0  0  0  0
  -28.3535   14.6318  -24.1913 C   0  0  0  0  0  0  0  0  0  0  0  0
  -27.5516   15.7131  -23.8733 C   0  0  0  0  0  0  0  0  0  0  0  0
  -27.3473   16.6723  -24.8409 C   0  0  0  0  0  0  0  0  0  0  0  0
  1  2  2  0
  2  3  1  0
  2  4  1  0
  4  5  2  0
  5  6  1  0
  6  7  2  0
  7  8  1  0
  8  9  2  0
  9 10  1  0
 10 11  2  0
 11 12  1  0
 12 13  2  0
 13 14  1  0
 13 15  1  0
 15 16  1  0
 16 17  1  0
 17 18  1  0
 18 19  1  0
 19 20  1  0
 20 21  1  0
 21 22  1  0
 22 23  1  0
 22 24  1  0
 20 25  1  0
 15 26  2  0
  9 27  1  0
 27 28  2  0
 28 29  1  0
 29 30  2  0
 30  4  1  0
 29  7  1  0
 26 10  1  0
 24 16  1  0
 25 16  1  0
 23 18  1  0
M  END
$$$$
