
     RDKit          3D

 20 22  0  0  0  0  0  0  0  0999 V2000
  -22.3273   40.8279  -23.4375 C   0  0  0  0  0  0  0  0  0  0  0  0
  -21.3693   40.0765  -22.7282 O   0  0  0  0  0  0  0  0  0  0  0  0
  -20.0348   40.4172  -22.7005 C   0  0  0  0  0  0  0  0  0  0  0  0
  -19.6177   41.7276  -22.6766 C   0  0  0  0  0  0  0  0  0  0  0  0
  -18.2816   42.0661  -22.6489 C   0  0  0  0  0  0  0  0  0  0  0  0
  -17.3523   41.0668  -22.6454 C   0  0  0  0  0  0  0  0  0  0  0  0
  -15.6481   41.4880  -22.6102 Cl  0  0  0  0  0  0  0  0  0  0  0  0
  -17.7313   39.7477  -22.6688 C   0  0  0  0  0  0  0  0  0  0  0  0
  -19.0735   39.4373  -22.6962 C   0  0  0  0  0  0  0  0  0  0  0  0
  -19.3958   38.0442  -22.7195 N   0  0  0  0  0  0  0  0  0  0  0  0
  -18.6256   37.0504  -22.0542 C   0  0  0  0  0  0  0  0  0  0  0  0
  -17.4918   37.4156  -21.6492 O   0  0  0  0  0  0  0  0  0  0  0  0
  -19.1004   35.6898  -21.8443 C   0  0  0  0  0  0  0  0  0  0  0  0
  -18.4209   34.6142  -21.3373 C   0  0  0  0  0  0  0  0  0  0  0  0
  -19.3109   33.5741  -21.3473 C   0  0  0  0  0  0  0  0  0  0  0  0
  -19.1182   32.1684  -20.9095 C   0  0  0  0  0  0  0  0  0  0  0  0
  -19.8552   31.0621  -21.5543 C   0  0  0  0  0  0  0  0  0  0  0  0
  -20.3944   31.5495  -20.2558 C   0  0  0  0  0  0  0  0  0  0  0  0
  -20.4290   34.0372  -21.8326 O   0  0  0  0  0  0  0  0  0  0  0  0
  -20.3318   35.2683  -22.1300 N   0  0  0  0  0  0  0  0  0  0  0  0
  1  2  1  0
  2  3  1  0
  3  4  2  0
  4  5  1  0
  5  6  2  0
  6  7  1  0
  6  8  1  0
  8  9  2  0
  9 10  1  0
 10 11  1  0
 11 12  2  0
 11 13  1  0
 13 14  1  0
 14 15  2  0
 15 16  1  0
 16 17  1  0
 17 18  1  0
 15 19  1  0
 19 20  1  0
  9  3  1  0
 20 13  2  0
 18 16  1  0
M  END
$$$$
