
     RDKit          3D

 29 33  0  0  0  0  0  0  0  0999 V2000
  -34.8563    9.3644  -19.8973 C   0  0  0  0  0  0  0  0  0  0  0  0
  -34.3491   10.1372  -18.9654 C   0  0  0  0  0  0  0  0  0  0  0  0
  -35.0363   11.4670  -18.7147 C   0  0  0  0  0  0  0  0  0  0  0  0
  -33.1523    9.8240  -18.1379 C   0  0  1  0  0  0  0  0  0  0  0  0
  -31.8482   10.0214  -18.8875 C   0  0  0  0  0  0  0  0  0  0  0  0
  -31.7136   11.5054  -18.8251 C   0  0  0  0  0  0  0  0  0  0  0  0
  -32.4886   11.9513  -17.7764 C   0  0  0  0  0  0  0  0  0  0  0  0
  -32.5392   13.3189  -17.5005 C   0  0  0  0  0  0  0  0  0  0  0  0
  -31.8179   14.1789  -18.2789 C   0  0  0  0  0  0  0  0  0  0  0  0
  -31.0484   13.7039  -19.3250 C   0  0  0  0  0  0  0  0  0  0  0  0
  -30.9841   12.3609  -19.6143 C   0  0  0  0  0  0  0  0  0  0  0  0
  -30.1973   11.9046  -20.6793 O   0  0  0  0  0  0  0  0  0  0  0  0
  -29.2651   12.7530  -21.3223 C   0  0  2  0  0  0  0  0  0  0  0  0
  -28.0045   12.8132  -20.4975 C   0  0  0  0  0  0  0  0  0  0  0  0
  -27.0969   13.7602  -21.0220 O   0  0  0  0  0  0  0  0  0  0  0  0
  -27.5300   14.8630  -21.7712 C   0  0  0  0  0  0  0  0  0  0  0  0
  -26.6010   15.7535  -22.2574 C   0  0  0  0  0  0  0  0  0  0  0  0
  -26.9875   16.8462  -22.9958 C   0  0  0  0  0  0  0  0  0  0  0  0
  -26.0336   17.7238  -23.4713 O   0  0  0  0  0  0  0  0  0  0  0  0
  -24.6983   17.6718  -22.9850 C   0  0  0  0  0  0  0  0  0  0  0  0
  -28.3226   17.0442  -23.2473 C   0  0  0  0  0  0  0  0  0  0  0  0
  -28.7441   18.1384  -23.9900 O   0  0  0  0  0  0  0  0  0  0  0  0
  -29.3897   17.9918  -25.2424 C   0  0  0  0  0  0  0  0  0  0  0  0
  -29.2620   16.1585  -22.7651 C   0  0  0  0  0  0  0  0  0  0  0  0
  -28.8639   15.0707  -22.0288 C   0  0  0  0  0  0  0  0  0  0  0  0
  -29.8763   14.1244  -21.5144 C   0  0  2  0  0  0  0  0  0  0  0  0
  -30.2805   14.6201  -20.1536 C   0  0  0  0  0  0  0  0  0  0  0  0
  -29.9750   15.7645  -19.7458 O   0  0  0  0  0  0  0  0  0  0  0  0
  -33.1065   10.8920  -17.1595 O   0  0  0  0  0  0  0  0  0  0  0  0
  1  2  2  0
  2  3  1  0
  4  2  1  6
  4  5  1  0
  5  6  1  0
  6  7  2  0
  7  8  1  0
  8  9  2  0
  9 10  1  0
 10 11  2  0
 11 12  1  0
 12 13  1  0
 13 14  1  1
 14 15  1  0
 15 16  1  0
 16 17  2  0
 17 18  1  0
 18 19  1  0
 19 20  1  0
 18 21  2  0
 21 22  1  0
 22 23  1  0
 21 24  1  0
 24 25  2  0
 25 26  1  0
 26 27  1  1
 27 28  2  0
  7 29  1  0
 29  4  1  0
 11  6  1  0
 26 13  1  0
 27 10  1  0
 25 16  1  0
M  END
$$$$
