
     RDKit          3D

 28 30  0  0  0  0  0  0  0  0999 V2000
  -28.8819   20.2032  -25.9996 C   0  0  0  0  0  0  0  0  0  0  0  0
  -28.5718   18.8895  -25.4999 N   0  0  0  0  0  0  0  0  0  0  0  0
  -27.5401   18.7149  -24.5394 C   0  0  0  0  0  0  0  0  0  0  0  0
  -26.4487   19.6321  -24.4772 N   0  0  0  0  0  0  0  0  0  0  0  0
  -27.6152   17.7267  -23.7422 N   0  0  0  0  0  0  0  0  0  0  0  0
  -28.6483   16.7255  -23.6842 C   0  0  2  0  0  0  0  0  0  0  0  0
  -29.9360   17.3731  -23.2248 C   0  0  0  0  0  0  0  0  0  0  0  0
  -28.1910   15.6690  -22.7745 C   0  0  0  0  0  0  0  0  0  0  0  0
  -29.1224   14.9245  -22.0933 C   0  0  0  0  0  0  0  0  0  0  0  0
  -28.7408   13.9204  -21.2248 C   0  0  0  0  0  0  0  0  0  0  0  0
  -29.7005   13.1373  -20.5091 N   0  0  0  0  0  0  0  0  0  0  0  0
  -29.9020   13.3257  -19.1205 C   0  0  0  0  0  0  0  0  0  0  0  0
  -29.0212   13.9656  -18.4917 O   0  0  0  0  0  0  0  0  0  0  0  0
  -31.0945   12.7956  -18.4315 C   0  0  0  0  0  0  0  0  0  0  0  0
  -32.0253   12.0917  -19.1462 C   0  0  0  0  0  0  0  0  0  0  0  0
  -33.1507   11.5838  -18.5287 C   0  0  0  0  0  0  0  0  0  0  0  0
  -33.3447   11.7872  -17.1659 C   0  0  0  0  0  0  0  0  0  0  0  0
  -34.4265   11.3124  -16.5139 F   0  0  0  0  0  0  0  0  0  0  0  0
  -32.3866   12.5027  -16.4689 C   0  0  0  0  0  0  0  0  0  0  0  0
  -31.2981   12.9810  -17.1222 N   0  0  0  0  0  0  0  0  0  0  0  0
  -27.3878   13.6974  -21.0708 C   0  0  0  0  0  0  0  0  0  0  0  0
  -26.4193   14.4265  -21.7396 C   0  0  0  0  0  0  0  0  0  0  0  0
  -26.8481   15.4179  -22.5955 C   0  0  0  0  0  0  0  0  0  0  0  0
  -25.9702   16.1764  -23.2896 F   0  0  0  0  0  0  0  0  0  0  0  0
  -28.9545   16.1387  -25.0621 C   0  0  0  0  0  0  0  0  0  0  0  0
  -29.4710   17.5116  -26.0836 S   0  0  0  0  0  6  0  0  0  0  0  0
  -29.1690   17.2523  -27.5286 O   0  0  0  0  0  0  0  0  0  0  0  0
  -30.9456   17.7146  -25.8895 O   0  0  0  0  0  0  0  0  0  0  0  0
  1  2  1  0
  2  3  1  0
  3  4  1  0
  3  5  2  0
  5  6  1  0
  6  7  1  1
  6  8  1  0
  8  9  2  0
  9 10  1  0
 10 11  1  0
 11 12  1  0
 12 13  2  0
 12 14  1  0
 14 15  2  0
 15 16  1  0
 16 17  2  0
 17 18  1  0
 17 19  1  0
 19 20  2  0
 10 21  2  0
 21 22  1  0
 22 23  2  0
 23 24  1  0
  6 25  1  0
 25 26  1  0
 26 27  2  0
 26 28  2  0
 26  2  1  0
 23  8  1  0
 20 14  1  0
M  END
$$$$
