
     RDKit          3D

 21 22  0  0  0  0  0  0  0  0999 V2000
  -17.6570   15.9294  -32.5428 O   0  0  0  0  0  0  0  0  0  0  0  0
  -16.9328   16.3790  -31.4221 C   0  0  0  0  0  0  0  0  0  0  0  0
  -15.8080   17.1555  -31.6240 C   0  0  0  0  0  0  0  0  0  0  0  0
  -15.2714   17.5841  -33.2458 Cl  0  0  0  0  0  0  0  0  0  0  0  0
  -15.1088   17.5890  -30.5155 C   0  0  0  0  0  0  0  0  0  0  0  0
  -15.5467   17.2395  -29.2553 C   0  0  0  0  0  0  0  0  0  0  0  0
  -14.6085   17.8274  -27.8821 Cl  0  0  0  0  0  0  0  0  0  0  0  0
  -16.6725   16.4633  -29.0740 C   0  0  0  0  0  0  0  0  0  0  0  0
  -17.2140   16.0307  -27.4652 Cl  0  0  0  0  0  0  0  0  0  0  0  0
  -17.4039   16.0077  -30.1799 C   0  0  0  0  0  0  0  0  0  0  0  0
  -18.6051   15.1775  -29.9827 C   0  0  0  0  0  0  0  0  0  0  0  0
  -19.7899   15.6052  -30.7370 C   0  0  0  0  0  0  0  0  0  0  0  0
  -20.1338   16.8988  -31.0404 C   0  0  0  0  0  0  0  0  0  0  0  0
  -19.3319   17.9423  -30.6280 O   0  0  0  0  0  0  0  0  0  0  0  0
  -21.2893   17.1883  -31.7654 C   0  0  0  0  0  0  0  0  0  0  0  0
  -21.6550   18.8427  -32.1060 Cl  0  0  0  0  0  0  0  0  0  0  0  0
  -22.0719   16.1304  -32.1661 C   0  0  0  0  0  0  0  0  0  0  0  0
  -21.7725   14.8227  -31.8896 C   0  0  0  0  0  0  0  0  0  0  0  0
  -22.8348   13.5407  -32.4459 Cl  0  0  0  0  0  0  0  0  0  0  0  0
  -20.6278   14.5710  -31.1732 C   0  0  0  0  0  0  0  0  0  0  0  0
  -20.2517   12.8870  -30.8249 Cl  0  0  0  0  0  0  0  0  0  0  0  0
  1  2  1  0
  2  3  2  0
  3  4  1  0
  3  5  1  0
  5  6  2  0
  6  7  1  0
  6  8  1  0
  8  9  1  0
  8 10  2  0
 10 11  1  0
 11 12  1  0
 12 13  2  0
 13 14  1  0
 13 15  1  0
 15 16  1  0
 15 17  2  0
 17 18  1  0
 18 19  1  0
 18 20  2  0
 20 21  1  0
 10  2  1  0
 20 12  1  0
M  END
$$$$
