
     RDKit          3D

  9  9  0  0  0  0  0  0  0  0999 V2000
  -16.5617   17.6009  -30.8112 N   0  0  0  0  0  0  0  0  0  0  0  0
  -17.9728   17.6730  -30.8407 C   0  0  0  0  0  0  0  0  0  0  0  0
  -18.6259   18.7167  -30.2613 N   0  0  0  0  0  0  0  0  0  0  0  0
  -19.9813   18.7702  -30.2990 C   0  0  0  0  0  0  0  0  0  0  0  0
  -20.5706   19.7612  -29.7472 O   0  0  0  0  0  0  0  0  0  0  0  0
  -20.6746   17.7899  -30.9097 N   0  0  0  0  0  0  0  0  0  0  0  0
  -20.0419   16.7490  -31.4885 C   0  0  0  0  0  0  0  0  0  0  0  0
  -18.6658   16.6695  -31.4651 C   0  0  0  0  0  0  0  0  0  0  0  0
  -17.9951   15.6417  -32.0343 F   0  0  0  0  0  0  0  0  0  0  0  0
  1  2  1  0
  2  3  2  0
  3  4  1  0
  4  5  2  0
  4  6  1  0
  6  7  1  0
  7  8  2  0
  8  9  1  0
  8  2  1  0
M  END
$$$$
