
     RDKit          3D

 18 19  0  0  0  0  0  0  0  0999 V2000
  -14.5310   45.6963  -20.5942 C   0  0  0  0  0  0  0  0  0  0  0  0
  -15.5450   44.6522  -20.3301 C   0  0  0  0  0  0  0  0  0  0  0  0
  -15.3595   43.3844  -20.7750 C   0  0  0  0  0  0  0  0  0  0  0  0
  -16.3153   42.3919  -20.5279 C   0  0  0  0  0  0  0  0  0  0  0  0
  -16.0285   41.0338  -21.0580 C   0  0  0  0  0  0  0  0  0  0  0  0
  -17.4566   42.6796  -19.8322 C   0  0  0  0  0  0  0  0  0  0  0  0
  -18.6572   41.4982  -19.5107 S   0  0  0  0  0  6  0  0  0  0  0  0
  -19.9091   42.1141  -18.9408 O   0  0  0  0  0  0  0  0  0  0  0  0
  -18.2241   40.4566  -18.5162 O   0  0  0  0  0  0  0  0  0  0  0  0
  -19.1344   40.7348  -21.0092 N   0  0  0  0  0  0  0  0  0  0  0  0
  -19.9967   41.2999  -22.0129 C   0  0  0  0  0  0  0  0  0  0  0  0
  -20.0156   40.3365  -23.1421 C   0  0  0  0  0  0  0  0  0  0  0  0
  -19.7266   38.9935  -22.4940 C   0  0  0  0  0  0  0  0  0  0  0  0
  -18.7380   39.4375  -21.4370 C   0  0  0  0  0  0  0  0  0  0  0  0
  -17.7589   38.7561  -21.0388 O   0  0  0  0  0  0  0  0  0  0  0  0
  -17.6331   43.9687  -19.3870 C   0  0  0  0  0  0  0  0  0  0  0  0
  -18.8426   44.3321  -18.6534 C   0  0  0  0  0  0  0  0  0  0  0  0
  -16.6764   44.9613  -19.6344 C   0  0  0  0  0  0  0  0  0  0  0  0
  1  2  1  0
  2  3  2  0
  3  4  1  0
  4  5  1  0
  4  6  2  0
  6  7  1  0
  7  8  2  0
  7  9  2  0
  7 10  1  0
 10 11  1  0
 11 12  1  0
 12 13  1  0
 13 14  1  0
 14 15  2  0
  6 16  1  0
 16 17  1  0
 16 18  2  0
 18  2  1  0
 14 10  1  0
M  END
$$$$
