
     RDKit          3D

 26 26  0  0  0  0  0  0  0  0999 V2000
  -17.5092   46.6164  -21.0764 N   0  0  0  0  0  0  0  0  0  0  0  0
  -17.1017   45.4895  -20.3131 C   0  0  0  0  0  0  0  0  0  0  0  0
  -17.6731   44.3130  -20.5602 N   0  0  0  0  0  0  0  0  0  0  0  0
  -17.3922   43.1797  -19.9276 C   0  0  0  0  0  0  0  0  0  0  0  0
  -16.4255   43.2283  -18.9296 C   0  0  0  0  0  0  0  0  0  0  0  0
  -16.3136   41.9889  -18.4424 N   0  0  0  0  0  0  0  0  0  0  0  0
  -17.1770   41.1808  -19.1052 C   0  0  0  0  0  0  0  0  0  0  0  0
  -17.8329   41.9143  -20.0114 N   0  0  0  0  0  0  0  0  0  0  0  0
  -18.8417   41.3948  -20.9128 C   0  0  2  0  0  0  0  0  0  0  0  0
  -19.3020   40.1793  -20.4924 O   0  0  0  0  0  0  0  0  0  0  0  0
  -19.4036   39.3389  -21.5905 C   0  0  2  0  0  0  0  0  0  0  0  0
  -19.3788   37.8810  -21.1927 C   0  0  0  0  0  0  0  0  0  0  0  0
  -19.4852   37.1198  -22.3387 O   0  0  0  0  0  0  0  0  0  0  0  0
  -19.4735   35.4721  -22.0692 P   0  0  0  0  0  5  0  0  0  0  0  0
  -20.7467   34.9345  -21.5064 O   0  0  0  0  0  0  0  0  0  0  0  0
  -18.2289   35.1250  -20.9697 O   0  0  0  0  0  1  0  0  0  0  0  0
  -19.1852   34.6920  -23.5432 O   0  0  0  0  0  1  0  0  0  0  0  0
  -18.1700   39.7207  -22.3826 C   0  0  1  0  0  0  0  0  0  0  0  0
  -18.1963   39.2441  -23.6739 O   0  0  0  0  0  0  0  0  0  0  0  0
  -18.2982   41.2309  -22.3168 C   0  0  1  0  0  0  0  0  0  0  0  0
  -19.2792   41.6510  -23.1971 O   0  0  0  0  0  0  0  0  0  0  0  0
  -15.8383   44.4570  -18.6816 C   0  0  0  0  0  0  0  0  0  0  0  0
  -14.9630   44.5437  -17.7907 O   0  0  0  0  0  0  0  0  0  0  0  0
  -16.1625   45.5755  -19.3550 N   0  0  0  0  0  0  0  0  0  0  0  0
  -18.0842   41.1271  -21.0129 Na  0  0  0  0  0 15  0  0  0  0  0  0
  -18.0842   41.1271  -21.0129 Na  0  0  0  0  0 15  0  0  0  0  0  0
  1  2  1  0
  2  3  2  0
  3  4  1  0
  4  5  2  0
  5  6  1  0
  6  7  2  0
  7  8  1  0
  9  8  1  1
  9 10  1  0
 10 11  1  0
 11 12  1  1
 12 13  1  0
 13 14  1  0
 14 15  2  0
 14 16  1  0
 14 17  1  0
 11 18  1  0
 18 19  1  6
 18 20  1  0
 20 21  1  6
  5 22  1  0
 22 23  2  0
 22 24  1  0
 24  2  1  0
  8  4  1  0
 20  9  1  0
M  CHG  4  16  -1  17  -1  25   1  26   1
M  END
$$$$
