
     RDKit          3D

 27 30  0  0  0  0  0  0  0  0999 V2000
  -19.7128   31.8872  -21.9687 C   0  0  0  0  0  0  0  0  0  0  0  0
  -19.7862   33.3871  -22.0542 C   0  0  0  0  0  0  0  0  0  0  0  0
  -18.7797   34.2755  -21.7496 C   0  0  0  0  0  0  0  0  0  0  0  0
  -19.2833   35.5395  -21.9711 C   0  0  0  0  0  0  0  0  0  0  0  0
  -18.7303   36.8092  -21.8354 C   0  0  0  0  0  0  0  0  0  0  0  0
  -17.4556   36.9400  -21.4095 F   0  0  0  0  0  0  0  0  0  0  0  0
  -19.4603   37.9354  -22.1279 C   0  0  0  0  0  0  0  0  0  0  0  0
  -18.8763   39.1740  -21.9804 O   0  0  0  0  0  0  0  0  0  0  0  0
  -19.0313   39.8073  -20.7442 C   0  0  0  0  0  0  0  0  0  0  0  0
  -19.3173   39.1677  -19.6190 N   0  0  0  0  0  0  0  0  0  0  0  0
  -19.4516   39.8435  -18.4666 C   0  0  0  0  0  0  0  0  0  0  0  0
  -19.2989   41.1818  -18.4304 N   0  0  0  0  0  0  0  0  0  0  0  0
  -19.0111   41.8675  -19.5361 N   0  0  0  0  0  0  0  0  0  0  0  0
  -18.8107   43.1948  -19.7622 C   0  0  0  0  0  0  0  0  0  0  0  0
  -18.5382   43.3939  -21.0973 C   0  0  0  0  0  0  0  0  0  0  0  0
  -18.2733   44.5470  -21.7785 O   0  0  0  0  0  0  0  0  0  0  0  0
  -18.3516   45.8566  -21.3590 C   0  0  0  0  0  0  0  0  0  0  0  0
  -19.3289   46.7374  -22.0597 C   0  0  1  0  0  0  0  0  0  0  0  0
  -18.9088   48.1819  -21.7403 C   0  0  0  0  0  0  0  0  0  0  0  0
  -19.2139   46.6293  -23.4448 O   0  0  0  0  0  0  0  0  0  0  0  0
  -18.5827   42.1255  -21.6691 C   0  0  0  0  0  0  0  0  0  0  0  0
  -18.3494   41.8395  -23.1035 C   0  0  0  0  0  0  0  0  0  0  0  0
  -18.8751   41.1980  -20.6936 C   0  0  0  0  0  0  0  0  0  0  0  0
  -20.7658   37.7803  -22.5631 C   0  0  0  0  0  0  0  0  0  0  0  0
  -21.3380   36.5396  -22.7066 C   0  0  0  0  0  0  0  0  0  0  0  0
  -20.6046   35.4182  -22.4131 C   0  0  0  0  0  0  0  0  0  0  0  0
  -20.8518   34.0973  -22.4433 N   0  0  0  0  0  0  0  0  0  0  0  0
  1  2  1  0
  2  3  2  0
  3  4  1  0
  4  5  2  0
  5  6  1  0
  5  7  1  0
  7  8  1  0
  8  9  1  0
  9 10  2  0
 10 11  1  0
 11 12  2  0
 12 13  1  0
 13 14  1  0
 14 15  2  0
 15 16  1  0
 16 17  1  0
 17 18  1  0
 18 19  1  6
 18 20  1  0
 15 21  1  0
 21 22  1  0
 21 23  2  0
  7 24  2  0
 24 25  1  0
 25 26  2  0
 26 27  1  0
 27  2  1  0
 26  4  1  0
 23  9  1  0
 23 13  1  0
M  END
$$$$
