
     RDKit          3D

 16 15  0  0  0  0  0  0  0  0999 V2000
  -29.0088   13.9330  -22.2965 C   0  0  0  0  0  0  0  0  0  0  0  0
  -30.1325   14.2460  -21.3583 C   0  0  0  0  0  0  0  0  0  0  0  0
  -31.4202   14.3264  -22.1155 C   0  0  0  0  0  0  0  0  0  0  0  0
  -29.8527   15.6576  -20.8186 C   0  0  0  0  0  0  0  0  0  0  0  0
  -30.1927   13.3648  -20.2055 N   0  0  0  0  0  0  0  0  0  0  0  0
  -30.3342   11.9877  -20.5629 C   0  0  0  0  0  0  0  0  0  0  0  0
  -30.4243   11.1350  -19.3171 C   0  0  0  0  0  0  0  0  0  0  0  0
  -29.2889   11.2720  -18.5205 O   0  0  0  0  0  0  0  0  0  0  0  0
  -31.6897   11.2605  -18.5976 C   0  0  0  0  0  0  0  0  0  0  0  0
  -32.7650   10.4818  -19.0685 C   0  0  0  0  0  0  0  0  0  0  0  0
  -33.9956   10.5516  -18.4490 C   0  0  0  0  0  0  0  0  0  0  0  0
  -34.1645   11.3848  -17.3709 C   0  0  0  0  0  0  0  0  0  0  0  0
  -33.0898   12.1514  -16.9141 C   0  0  0  0  0  0  0  0  0  0  0  0
  -31.8626   12.0934  -17.5179 C   0  0  0  0  0  0  0  0  0  0  0  0
  -30.5539   13.0574  -16.9115 Cl  0  0  0  0  0  0  0  0  0  0  0  0
  -31.4788   12.2025  -19.8701 Cl  0  0  0  0  0  0  0  0  0  0  0  0
  1  2  1  0
  2  3  1  0
  2  4  1  0
  2  5  1  0
  5  6  1  0
  6  7  1  0
  7  8  1  0
  7  9  1  0
  9 10  2  0
 10 11  1  0
 11 12  2  0
 12 13  1  0
 13 14  2  0
 14 15  1  0
 14  9  1  0
M  END
$$$$
