
     RDKit          3D

 37 40  0  0  0  0  0  0  0  0999 V2000
  -26.0262   26.8285  -34.4916 C   0  0  0  0  0  0  0  0  0  0  0  0
  -25.7338   25.5593  -35.2611 C   0  0  0  0  0  0  0  0  0  0  0  0
  -26.5885   24.4864  -34.9958 N   0  0  0  0  0  0  0  0  0  0  0  0
  -27.9879   24.6546  -35.0931 C   0  0  0  0  0  0  0  0  0  0  0  0
  -28.4602   25.5859  -36.1708 C   0  0  0  0  0  0  0  0  0  0  0  0
  -29.8130   25.7508  -36.2640 O   0  0  0  0  0  0  0  0  0  0  0  0
  -26.2412   23.7007  -33.8756 C   0  0  0  0  0  0  0  0  0  0  0  0
  -26.1335   22.2489  -34.2229 C   0  0  0  0  0  0  0  0  0  0  0  0
  -24.7858   21.7674  -33.7123 C   0  0  0  0  0  0  0  0  0  0  0  0
  -24.9496   20.6906  -32.8100 O   0  0  0  0  0  0  0  0  0  0  0  0
  -23.8446   20.0557  -32.3016 C   0  0  0  0  0  0  0  0  0  0  0  0
  -23.7871   18.6660  -32.3300 C   0  0  0  0  0  0  0  0  0  0  0  0
  -22.6525   18.0318  -31.8045 C   0  0  0  0  0  0  0  0  0  0  0  0
  -21.6274   18.7863  -31.2760 C   0  0  0  0  0  0  0  0  0  0  0  0
  -20.5415   18.1344  -30.7629 C   0  0  0  0  0  0  0  0  0  0  0  0
  -20.4854   16.7060  -30.8547 N   0  0  0  0  0  0  0  0  0  0  0  0
  -19.5785   15.9711  -30.0493 C   0  0  0  0  0  0  0  0  0  0  0  0
  -18.3389   16.3108  -29.5838 C   0  0  0  0  0  0  0  0  0  0  0  0
  -17.8122   15.2675  -28.8620 C   0  0  0  0  0  0  0  0  0  0  0  0
  -16.5245   15.1915  -28.1803 C   0  0  0  0  0  0  0  0  0  0  0  0
  -15.5290   14.3777  -28.9438 C   0  0  0  0  0  0  0  0  0  0  0  0
  -14.9223   14.8830  -29.9195 O   0  0  0  0  0  0  0  0  0  0  0  0
  -15.2325   13.0280  -28.6096 N   0  0  0  0  0  0  0  0  0  0  0  0
  -13.9484   12.4634  -28.7666 C   0  0  0  0  0  0  0  0  0  0  0  0
  -13.7716   11.1194  -28.9567 C   0  0  0  0  0  0  0  0  0  0  0  0
  -12.4767   10.5823  -29.0852 C   0  0  0  0  0  0  0  0  0  0  0  0
  -11.3781   11.4212  -29.0178 C   0  0  0  0  0  0  0  0  0  0  0  0
  -11.5558   12.7621  -28.8277 C   0  0  0  0  0  0  0  0  0  0  0  0
  -10.4825   13.6036  -28.7515 F   0  0  0  0  0  0  0  0  0  0  0  0
  -12.8414   13.2766  -28.7031 C   0  0  0  0  0  0  0  0  0  0  0  0
  -18.7468   14.2943  -28.8942 N   0  0  0  0  0  0  0  0  0  0  0  0
  -19.7985   14.7226  -29.6049 N   0  0  0  0  0  0  0  0  0  0  0  0
  -19.5297   18.8082  -30.2293 N   0  0  0  0  0  0  0  0  0  0  0  0
  -19.5882   20.1723  -30.2002 C   0  0  0  0  0  0  0  0  0  0  0  0
  -20.6532   20.8160  -30.7047 N   0  0  0  0  0  0  0  0  0  0  0  0
  -21.6890   20.1877  -31.2486 C   0  0  0  0  0  0  0  0  0  0  0  0
  -22.7985   20.7732  -31.7646 C   0  0  0  0  0  0  0  0  0  0  0  0
  1  2  1  0
  2  3  1  0
  3  4  1  0
  4  5  1  0
  5  6  1  0
  3  7  1  0
  7  8  1  0
  8  9  1  0
  9 10  1  0
 10 11  1  0
 11 12  2  0
 12 13  1  0
 13 14  2  0
 14 15  1  0
 15 16  1  0
 16 17  1  0
 17 18  2  0
 18 19  1  0
 19 20  1  0
 20 21  1  0
 21 22  2  0
 21 23  1  0
 23 24  1  0
 24 25  2  0
 25 26  1  0
 26 27  2  0
 27 28  1  0
 28 29  1  0
 28 30  2  0
 19 31  2  0
 31 32  1  0
 15 33  2  0
 33 34  1  0
 34 35  2  0
 35 36  1  0
 36 37  2  0
 37 11  1  0
 36 14  1  0
 32 17  1  0
 30 24  1  0
M  END
$$$$
