
     RDKit          3D

 38 42  0  0  0  0  0  0  0  0999 V2000
  -20.7684   23.4307  -35.1097 O   0  0  0  0  0  0  0  0  0  0  0  0
  -22.0078   23.3322  -34.8006 C   0  0  0  0  0  0  0  0  0  0  0  0
  -22.4165   22.0488  -34.4036 N   0  0  0  0  0  0  0  0  0  0  0  0
  -21.4659   20.9094  -34.3876 C   0  0  1  0  0  0  0  0  0  0  0  0
  -21.2132   20.4805  -32.9636 C   0  0  0  0  0  0  0  0  0  0  0  0
  -20.0144   19.9857  -32.6920 O   0  0  0  0  0  0  0  0  0  0  0  0
  -19.1338   19.3330  -31.9697 C   0  0  0  0  0  0  0  0  0  0  0  0
  -17.8011   19.7157  -31.9213 C   0  0  0  0  0  0  0  0  0  0  0  0
  -16.9068   19.0127  -31.1521 C   0  0  0  0  0  0  0  0  0  0  0  0
  -17.3441   17.9115  -30.4202 C   0  0  0  0  0  0  0  0  0  0  0  0
  -16.6725   17.0856  -29.6143 N   0  0  0  0  0  0  0  0  0  0  0  0
  -17.5606   16.1931  -29.1587 C   0  0  0  0  0  0  0  0  0  0  0  0
  -17.2811   15.2404  -28.3565 O   0  0  0  0  0  0  0  0  0  0  0  0
  -18.7715   16.4457  -29.6639 N   0  0  0  0  0  0  0  0  0  0  0  0
  -18.6676   17.5287  -30.4673 C   0  0  0  0  0  0  0  0  0  0  0  0
  -19.5811   18.2092  -31.2237 C   0  0  0  0  0  0  0  0  0  0  0  0
  -22.0869   19.8947  -35.2523 C   0  0  0  0  0  0  0  0  0  0  0  0
  -23.3848   20.1140  -35.6590 C   0  0  0  0  0  0  0  0  0  0  0  0
  -24.0150   19.2017  -36.4683 C   0  0  0  0  0  0  0  0  0  0  0  0
  -23.3740   18.0540  -36.8918 C   0  0  0  0  0  0  0  0  0  0  0  0
  -22.0708   17.8631  -36.4659 C   0  0  0  0  0  0  0  0  0  0  0  0
  -21.4267   18.7684  -35.6550 C   0  0  0  0  0  0  0  0  0  0  0  0
  -22.8509   24.5252  -34.8878 C   0  0  0  0  0  0  0  0  0  0  0  0
  -22.2453   25.7219  -35.3078 C   0  0  0  0  0  0  0  0  0  0  0  0
  -22.9401   26.8954  -35.4241 C   0  0  0  0  0  0  0  0  0  0  0  0
  -24.2834   26.8824  -35.1129 C   0  0  0  0  0  0  0  0  0  0  0  0
  -24.8833   25.7434  -34.7077 N   0  0  0  0  0  0  0  0  0  0  0  0
  -26.3065   25.7844  -34.3853 C   0  0  0  0  0  0  0  0  0  0  0  0
  -27.0563   25.3425  -35.5710 C   0  0  0  0  0  0  0  0  0  0  0  0
  -27.7352   24.1521  -35.5400 C   0  0  0  0  0  0  0  0  0  0  0  0
  -28.4610   23.6919  -36.6272 C   0  0  0  0  0  0  0  0  0  0  0  0
  -28.4624   24.4991  -37.7436 C   0  0  0  0  0  0  0  0  0  0  0  0
  -29.1776   24.0481  -38.8188 F   0  0  0  0  0  0  0  0  0  0  0  0
  -27.7939   25.7022  -37.8168 C   0  0  0  0  0  0  0  0  0  0  0  0
  -27.8236   26.4701  -38.9464 F   0  0  0  0  0  0  0  0  0  0  0  0
  -27.0855   26.1113  -36.7000 C   0  0  0  0  0  0  0  0  0  0  0  0
  -24.1804   24.5781  -34.5953 C   0  0  0  0  0  0  0  0  0  0  0  0
  -24.7773   23.5406  -34.2155 O   0  0  0  0  0  0  0  0  0  0  0  0
  1  2  2  0
  2  3  1  0
  3  4  1  0
  4  5  1  1
  5  6  1  0
  6  7  1  0
  7  8  2  0
  8  9  1  0
  9 10  2  0
 10 11  1  0
 11 12  1  0
 12 13  2  0
 12 14  1  0
 14 15  1  0
 15 16  2  0
  4 17  1  0
 17 18  2  0
 18 19  1  0
 19 20  2  0
 20 21  1  0
 21 22  2  0
  2 23  1  0
 23 24  2  0
 24 25  1  0
 25 26  2  0
 26 27  1  0
 27 28  1  0
 28 29  1  0
 29 30  2  0
 30 31  1  0
 31 32  2  0
 32 33  1  0
 32 34  1  0
 34 35  1  0
 34 36  2  0
 27 37  1  0
 37 38  2  0
 16  7  1  0
 22 17  1  0
 37 23  1  0
 15 10  1  0
 36 29  1  0
M  END
$$$$
