
     RDKit          3D

 41 45  0  0  0  0  0  0  0  0999 V2000
  -20.7812   14.3822  -31.4529 C   0  0  0  0  0  0  0  0  0  0  0  0
  -20.9958   15.1160  -32.6980 N   0  0  0  0  0  0  0  0  0  0  0  0
  -20.0544   16.0765  -33.1504 C   0  0  0  0  0  0  0  0  0  0  0  0
  -19.1215   16.3373  -32.3587 O   0  0  0  0  0  0  0  0  0  0  0  0
  -20.1243   16.7371  -34.4321 C   0  0  0  0  0  0  0  0  0  0  0  0
  -21.3444   16.7951  -35.0862 C   0  0  0  0  0  0  0  0  0  0  0  0
  -21.4659   17.4837  -36.2700 C   0  0  0  0  0  0  0  0  0  0  0  0
  -20.3995   18.1322  -36.8437 C   0  0  0  0  0  0  0  0  0  0  0  0
  -19.1970   18.0846  -36.2173 C   0  0  0  0  0  0  0  0  0  0  0  0
  -19.0645   17.3820  -35.0084 C   0  0  0  0  0  0  0  0  0  0  0  0
  -17.7918   17.3463  -34.3757 N   0  0  0  0  0  0  0  0  0  0  0  0
  -16.6052   17.2574  -35.1659 C   0  0  0  0  0  0  0  0  0  0  0  0
  -16.5706   17.5739  -36.4579 N   0  0  0  0  0  0  0  0  0  0  0  0
  -15.4368   17.4900  -37.2313 C   0  0  0  0  0  0  0  0  0  0  0  0
  -15.5540   17.8671  -38.5801 N   0  0  0  0  0  0  0  0  0  0  0  0
  -16.5943   18.6817  -39.0813 C   0  0  0  0  0  0  0  0  0  0  0  0
  -17.5254   19.3109  -38.2835 C   0  0  0  0  0  0  0  0  0  0  0  0
  -18.5211   20.1131  -38.8711 C   0  0  0  0  0  0  0  0  0  0  0  0
  -18.5787   20.2794  -40.2387 C   0  0  0  0  0  0  0  0  0  0  0  0
  -17.6351   19.6379  -41.0075 C   0  0  0  0  0  0  0  0  0  0  0  0
  -16.6461   18.8458  -40.4773 C   0  0  0  0  0  0  0  0  0  0  0  0
  -15.7192   18.2171  -41.2505 O   0  0  0  0  0  0  0  0  0  0  0  0
  -15.5661   16.8337  -41.4189 C   0  0  0  0  0  0  0  0  0  0  0  0
  -17.5091   19.6756  -42.4774 C   0  0  0  0  0  0  0  0  0  0  0  0
  -17.2169   21.0885  -42.9358 C   0  0  0  0  0  0  0  0  0  0  0  0
  -17.8899   22.0275  -41.9555 C   0  0  0  0  0  0  0  0  0  0  0  0
  -19.3766   21.7669  -41.9797 C   0  0  2  0  0  0  0  0  0  0  0  0
  -20.1744   22.8911  -42.2020 N   0  0  0  0  0  0  0  0  0  0  0  0
  -21.4562   22.9625  -41.6132 C   0  0  0  0  0  0  0  0  0  0  0  0
  -22.4244   23.3750  -42.6923 C   0  0  0  0  0  0  0  0  0  0  0  0
  -21.8303   24.2150  -43.6708 N   0  0  0  0  0  0  0  0  0  0  0  0
  -22.7746   25.1046  -44.3039 C   0  0  0  0  0  0  0  0  0  0  0  0
  -22.2901   25.6061  -45.6245 C   0  0  0  0  0  0  0  0  0  0  0  0
  -23.3803   26.1460  -46.3572 O   0  0  0  0  0  0  0  0  0  0  0  0
  -20.6457   24.9098  -43.3491 C   0  0  0  0  0  0  0  0  0  0  0  0
  -19.6111   24.1145  -42.5792 C   0  0  0  0  0  0  0  0  0  0  0  0
  -19.7235   21.1809  -40.6235 C   0  0  0  0  0  0  0  0  0  0  0  0
  -14.3625   17.0665  -36.5969 N   0  0  0  0  0  0  0  0  0  0  0  0
  -14.3052   16.7242  -35.2928 C   0  0  0  0  0  0  0  0  0  0  0  0
  -15.4520   16.8156  -34.5360 C   0  0  0  0  0  0  0  0  0  0  0  0
  -15.4735   16.3934  -32.8379 Cl  0  0  0  0  0  0  0  0  0  0  0  0
  1  2  1  0
  2  3  1  0
  3  4  2  0
  3  5  1  0
  5  6  2  0
  6  7  1  0
  7  8  2  0
  8  9  1  0
  9 10  2  0
 10 11  1  0
 11 12  1  0
 12 13  2  0
 13 14  1  0
 14 15  1  0
 15 16  1  0
 16 17  2  0
 17 18  1  0
 18 19  2  0
 19 20  1  0
 20 21  2  0
 21 22  1  0
 22 23  1  0
 20 24  1  0
 24 25  1  0
 25 26  1  0
 26 27  1  0
 27 28  1  1
 28 29  1  0
 29 30  1  0
 30 31  1  0
 31 32  1  0
 32 33  1  0
 33 34  1  0
 31 35  1  0
 35 36  1  0
 27 37  1  0
 14 38  2  0
 38 39  1  0
 39 40  2  0
 40 41  1  0
 10  5  1  0
 40 12  1  0
 21 16  1  0
 36 28  1  0
 37 19  1  0
M  END
$$$$
