
     RDKit          3D

 30 34  0  0  0  0  0  0  0  0999 V2000
  -16.1578   39.6703  -23.1508 F   0  0  0  0  0  0  0  0  0  0  0  0
  -16.5025   40.8514  -22.5032 C   0  0  0  0  0  0  0  0  0  0  0  0
  -15.4943   41.3324  -21.7292 F   0  0  0  0  0  0  0  0  0  0  0  0
  -17.7297   40.5388  -21.7080 C   0  0  0  0  0  0  0  0  0  0  0  0
  -18.2882   39.3254  -21.5708 N   0  0  0  0  0  0  0  0  0  0  0  0
  -19.3721   39.4902  -20.7760 C   0  0  0  0  0  0  0  0  0  0  0  0
  -20.3373   38.6432  -20.2767 C   0  0  0  0  0  0  0  0  0  0  0  0
  -21.3799   39.0314  -19.4641 C   0  0  0  0  0  0  0  0  0  0  0  0
  -21.4378   40.3868  -19.1391 C   0  0  0  0  0  0  0  0  0  0  0  0
  -20.5021   41.2797  -19.6080 C   0  0  0  0  0  0  0  0  0  0  0  0
  -19.4799   40.8378  -20.4177 C   0  0  0  0  0  0  0  0  0  0  0  0
  -18.4372   41.4529  -21.0200 N   0  0  0  0  0  0  0  0  0  0  0  0
  -18.1386   42.8256  -20.9414 C   0  0  0  0  0  0  0  0  0  0  0  0
  -19.0404   43.8053  -21.1593 N   0  0  0  0  0  0  0  0  0  0  0  0
  -18.7472   45.1145  -21.0822 C   0  0  0  0  0  0  0  0  0  0  0  0
  -19.6990   46.1372  -21.3120 N   0  0  0  0  0  0  0  0  0  0  0  0
  -19.3962   47.5117  -20.9671 C   0  0  0  0  0  0  0  0  0  0  0  0
  -20.5235   48.4035  -21.4390 C   0  0  0  0  0  0  0  0  0  0  0  0
  -21.7569   47.9884  -20.9991 O   0  0  0  0  0  0  0  0  0  0  0  0
  -22.0881   46.7001  -21.2939 C   0  0  0  0  0  0  0  0  0  0  0  0
  -20.9954   45.8745  -21.8897 C   0  0  0  0  0  0  0  0  0  0  0  0
  -17.4735   45.4506  -20.7679 N   0  0  0  0  0  0  0  0  0  0  0  0
  -16.5385   44.5148  -20.5417 C   0  0  0  0  0  0  0  0  0  0  0  0
  -15.1965   44.8442  -20.2105 N   0  0  0  0  0  0  0  0  0  0  0  0
  -14.6848   46.1787  -20.1838 C   0  0  0  0  0  0  0  0  0  0  0  0
  -13.4566   46.2439  -19.3017 C   0  0  0  0  0  0  0  0  0  0  0  0
  -13.6957   45.4183  -18.2131 O   0  0  0  0  0  0  0  0  0  0  0  0
  -13.5911   44.0827  -18.5899 C   0  0  0  0  0  0  0  0  0  0  0  0
  -14.2832   43.7625  -19.8778 C   0  0  0  0  0  0  0  0  0  0  0  0
  -16.8775   43.2369  -20.6299 N   0  0  0  0  0  0  0  0  0  0  0  0
  1  2  1  0
  2  3  1  0
  2  4  1  0
  4  5  2  0
  5  6  1  0
  6  7  2  0
  7  8  1  0
  8  9  2  0
  9 10  1  0
 10 11  2  0
 11 12  1  0
 12 13  1  0
 13 14  2  0
 14 15  1  0
 15 16  1  0
 16 17  1  0
 17 18  1  0
 18 19  1  0
 19 20  1  0
 20 21  1  0
 15 22  2  0
 22 23  1  0
 23 24  1  0
 24 25  1  0
 25 26  1  0
 26 27  1  0
 27 28  1  0
 28 29  1  0
 23 30  2  0
 12  4  1  0
 30 13  1  0
 11  6  1  0
 21 16  1  0
 29 24  1  0
M  END
$$$$
