
     RDKit          3D

 25 27  0  0  0  0  0  0  0  0999 V2000
  -18.0495   40.6740  -21.5456 O   0  0  0  0  0  0  0  0  0  0  0  0
  -18.8186   40.2772  -20.6182 C   0  0  0  0  0  0  0  0  0  0  0  0
  -19.0218   38.8896  -20.4582 N   0  0  0  0  0  0  0  0  0  0  0  0
  -18.4852   38.0502  -21.3926 O   0  0  0  0  0  0  0  0  0  0  0  0
  -18.7328   36.7524  -20.9485 C   0  0  0  0  0  0  0  0  0  0  0  0
  -17.8995   35.7531  -21.7236 C   0  0  0  0  0  0  0  0  0  0  0  0
  -18.7391   34.7848  -22.5590 C   0  0  0  0  0  0  0  0  0  0  0  0
  -17.9744   34.3076  -21.4040 C   0  0  0  0  0  0  0  0  0  0  0  0
  -19.4386   41.2879  -19.7826 C   0  0  0  0  0  0  0  0  0  0  0  0
  -20.3099   40.9144  -18.7950 C   0  0  0  0  0  0  0  0  0  0  0  0
  -20.8753   41.8654  -17.9754 C   0  0  0  0  0  0  0  0  0  0  0  0
  -20.6033   43.1956  -18.1021 C   0  0  0  0  0  0  0  0  0  0  0  0
  -21.1562   44.1452  -17.2968 F   0  0  0  0  0  0  0  0  0  0  0  0
  -19.7326   43.5811  -19.0884 C   0  0  0  0  0  0  0  0  0  0  0  0
  -19.4534   44.8895  -19.2270 F   0  0  0  0  0  0  0  0  0  0  0  0
  -19.1443   42.6291  -19.9365 C   0  0  0  0  0  0  0  0  0  0  0  0
  -18.2847   43.0940  -20.9543 N   0  0  0  0  0  0  0  0  0  0  0  0
  -17.0353   43.6997  -20.7262 C   0  0  0  0  0  0  0  0  0  0  0  0
  -16.6138   43.7091  -19.3851 C   0  0  0  0  0  0  0  0  0  0  0  0
  -15.4058   44.2933  -19.0924 C   0  0  0  0  0  0  0  0  0  0  0  0
  -14.6339   44.8507  -20.0784 C   0  0  0  0  0  0  0  0  0  0  0  0
  -12.7792   45.7434  -19.6029 I   0  0  0  0  0  0  0  0  0  0  0  0
  -15.0634   44.8316  -21.3818 C   0  0  0  0  0  0  0  0  0  0  0  0
  -16.2832   44.2480  -21.7162 C   0  0  0  0  0  0  0  0  0  0  0  0
  -16.7600   44.2811  -23.3992 Cl  0  0  0  0  0  0  0  0  0  0  0  0
  1  2  2  0
  2  3  1  0
  3  4  1  0
  4  5  1  0
  5  6  1  0
  6  7  1  0
  7  8  1  0
  2  9  1  0
  9 10  2  0
 10 11  1  0
 11 12  2  0
 12 13  1  0
 12 14  1  0
 14 15  1  0
 14 16  2  0
 16 17  1  0
 17 18  1  0
 18 19  2  0
 19 20  1  0
 20 21  2  0
 21 22  1  0
 21 23  1  0
 23 24  2  0
 24 25  1  0
  8  6  1  0
 16  9  1  0
 24 18  1  0
M  END
$$$$
