
     RDKit          3D

 16 16  0  0  0  0  0  0  0  0999 V2000
  -18.3181   43.0361  -20.8503 C   0  0  0  0  0  0  0  0  0  0  0  0
  -18.2627   41.5416  -20.9913 C   0  0  0  0  0  0  0  0  0  0  0  0
  -17.3857   40.9368  -21.8485 C   0  0  0  0  0  0  0  0  0  0  0  0
  -17.3277   39.5685  -21.9837 C   0  0  0  0  0  0  0  0  0  0  0  0
  -18.1646   38.7589  -21.2481 C   0  0  0  0  0  0  0  0  0  0  0  0
  -18.1172   37.3464  -21.3760 N   0  0  0  0  0  4  0  0  0  0  0  0
  -18.8676   36.5939  -20.7627 O   0  0  0  0  0  0  0  0  0  0  0  0
  -17.1936   36.7874  -22.2216 O   0  0  0  0  0  1  0  0  0  0  0  0
  -19.0518   39.3845  -20.3803 C   0  0  0  0  0  0  0  0  0  0  0  0
  -19.1153   40.7567  -20.2391 C   0  0  0  0  0  0  0  0  0  0  0  0
  -20.2487   41.5347  -19.1521 S   0  0  0  0  0  6  0  0  0  0  0  0
  -20.4480   40.5787  -17.9860 O   0  0  0  0  0  0  0  0  0  0  0  0
  -19.6199   42.7781  -18.5867 O   0  0  0  0  0  0  0  0  0  0  0  0
  -21.6910   41.8369  -19.9774 N   0  0  0  0  0  0  0  0  0  0  0  0
  -21.9293   41.0742  -21.1500 C   0  0  0  0  0  0  0  0  0  0  0  0
  -22.1199   43.1861  -19.9885 C   0  0  0  0  0  0  0  0  0  0  0  0
  1  2  1  0
  2  3  2  0
  3  4  1  0
  4  5  2  0
  5  6  1  0
  6  7  2  0
  6  8  1  0
  5  9  1  0
  9 10  2  0
 10 11  1  0
 11 12  2  0
 11 13  2  0
 11 14  1  0
 14 15  1  0
 14 16  1  0
 10  2  1  0
M  CHG  2   6   1   8  -1
M  END
$$$$
