
     RDKit          3D

 14 16  0  0  0  0  0  0  0  0999 V2000
  -36.6121    8.6757  -30.3246 O   0  0  0  0  0  0  0  0  0  0  0  0
  -37.5681    7.9011  -30.6710 C   0  0  0  0  0  0  0  0  0  0  0  0
  -37.3670    6.5500  -30.4782 C   0  0  0  0  0  0  0  0  0  0  0  0
  -38.3874    5.6969  -30.8458 C   0  0  0  0  0  0  0  0  0  0  0  0
  -39.5500    6.2213  -31.3831 C   0  0  0  0  0  0  0  0  0  0  0  0
  -39.6733    7.5778  -31.5431 C   0  0  0  0  0  0  0  0  0  0  0  0
  -38.7009    8.4030  -31.1938 N   0  0  0  0  0  0  0  0  0  0  0  0
  -38.7673    9.8453  -31.3363 C   0  0  0  0  0  0  0  0  0  0  0  0
  -40.0490   10.3318  -31.9211 C   0  0  2  0  0  0  0  0  0  0  0  0
  -41.1155   10.6375  -30.9192 C   0  0  0  0  0  0  0  0  0  0  0  0
  -41.4997    9.4707  -30.1790 N   0  0  0  0  0  0  0  0  0  0  0  0
  -41.8849    8.3549  -30.9846 C   0  0  0  0  0  0  0  0  0  0  0  0
  -40.9429    8.0815  -32.1244 C   0  0  1  0  0  0  0  0  0  0  0  0
  -40.6114    9.3310  -32.9093 C   0  0  0  0  0  0  0  0  0  0  0  0
  1  2  2  0
  2  3  1  0
  3  4  2  0
  4  5  1  0
  5  6  2  0
  6  7  1  0
  7  8  1  0
  9  8  1  1
  9 10  1  0
 10 11  1  0
 11 12  1  0
 13 12  1  1
 13 14  1  0
  7  2  1  0
 14  9  1  0
 13  6  1  0
M  END
$$$$
