
     RDKit          3D

 35 40  0  0  0  0  0  0  0  0999 V2000
  -19.8198   44.3751  -22.1857 O   0  0  0  0  0  0  0  0  0  0  0  0
  -19.6287   43.6017  -23.1731 C   0  0  0  0  0  0  0  0  0  0  0  0
  -19.1728   42.2456  -22.9146 C   0  0  0  0  0  0  0  0  0  0  0  0
  -18.2166   41.9952  -21.9590 C   0  0  0  0  0  0  0  0  0  0  0  0
  -17.7626   40.7074  -21.7068 C   0  0  0  0  0  0  0  0  0  0  0  0
  -18.2644   39.6378  -22.4142 C   0  0  0  0  0  0  0  0  0  0  0  0
  -17.8307   38.3088  -22.2205 N   0  0  0  0  0  0  0  0  0  0  0  0
  -18.7860   37.2403  -22.2656 C   0  0  0  0  0  0  0  0  0  0  0  0
  -18.4993   36.0055  -21.8217 N   0  0  0  0  0  0  0  0  0  0  0  0
  -19.4207   35.0023  -21.8719 C   0  0  0  0  0  0  0  0  0  0  0  0
  -20.6754   35.2449  -22.3859 C   0  0  0  0  0  0  0  0  0  0  0  0
  -20.9531   36.5095  -22.8347 C   0  0  0  0  0  0  0  0  0  0  0  0
  -22.2837   36.7866  -23.3832 C   0  0  0  0  0  0  0  0  0  0  0  0
  -23.5004   36.2315  -23.2257 C   0  0  0  0  0  0  0  0  0  0  0  0
  -24.5517   36.7484  -23.9001 C   0  0  0  0  0  0  0  0  0  0  0  0
  -25.8913   36.2907  -23.8549 C   0  0  0  0  0  0  0  0  0  0  0  0
  -26.8513   36.9215  -24.6032 C   0  0  0  0  0  0  0  0  0  0  0  0
  -26.6199   38.0015  -25.4263 C   0  0  0  0  0  0  0  0  0  0  0  0
  -25.3170   38.4430  -25.4676 C   0  0  0  0  0  0  0  0  0  0  0  0
  -24.3410   37.8095  -24.7132 C   0  0  0  0  0  0  0  0  0  0  0  0
  -22.6202   38.1465  -24.5715 S   0  0  0  0  0  0  0  0  0  0  0  0
  -20.0175   37.4411  -22.7597 N   0  0  0  0  0  0  0  0  0  0  0  0
  -19.2287   39.8910  -23.3763 C   0  0  0  0  0  0  0  0  0  0  0  0
  -19.6753   41.1790  -23.6220 C   0  0  0  0  0  0  0  0  0  0  0  0
  -19.8807   44.1382  -24.4576 N   0  0  0  0  0  0  0  0  0  0  0  0
  -20.0143   45.5692  -24.6747 C   0  0  0  0  0  0  0  0  0  0  0  0
  -21.2820   45.9086  -25.4532 C   0  0  0  0  0  0  0  0  0  0  0  0
  -21.5600   44.9255  -26.5542 C   0  0  0  0  0  0  0  0  0  0  0  0
  -22.0673   45.6402  -27.7000 N   0  0  0  0  0  0  0  0  0  0  0  0
  -23.2741   46.3640  -27.4424 C   0  0  0  0  0  0  0  0  0  0  0  0
  -24.3675   45.6788  -28.2510 C   0  0  0  0  0  0  0  0  0  0  0  0
  -23.5878   45.1960  -29.4576 C   0  0  0  0  0  0  0  0  0  0  0  0
  -22.2813   44.8053  -28.8463 C   0  0  0  0  0  0  0  0  0  0  0  0
  -20.3229   44.1353  -26.8608 C   0  0  0  0  0  0  0  0  0  0  0  0
  -20.0171   43.2813  -25.6182 C   0  0  0  0  0  0  0  0  0  0  0  0
  1  2  2  0
  2  3  1  0
  3  4  2  0
  4  5  1  0
  5  6  2  0
  6  7  1  0
  7  8  1  0
  8  9  2  0
  9 10  1  0
 10 11  2  0
 11 12  1  0
 12 13  1  0
 13 14  2  0
 14 15  1  0
 15 16  2  0
 16 17  1  0
 17 18  2  0
 18 19  1  0
 19 20  2  0
 20 21  1  0
 12 22  2  0
  6 23  1  0
 23 24  2  0
  2 25  1  0
 25 26  1  0
 26 27  1  0
 27 28  1  0
 28 29  1  0
 29 30  1  0
 30 31  1  0
 31 32  1  0
 32 33  1  0
 28 34  1  0
 34 35  1  0
 24  3  1  0
 35 25  1  0
 22  8  1  0
 33 29  1  0
 21 13  1  0
 20 15  1  0
M  END
$$$$
