
     RDKit          3D

 35 36  0  0  0  0  0  0  0  0999 V2000
  -16.9777   40.6415  -23.5552 O   0  0  0  0  0  0  0  0  0  0  0  0
  -17.2804   41.5219  -22.7227 C   0  0  0  0  0  0  0  0  0  0  0  0
  -16.8821   42.8042  -22.9437 O   0  0  0  0  0  1  0  0  0  0  0  0
  -18.0619   41.0875  -21.5433 C   0  0  0  0  0  0  0  0  0  0  0  0
  -18.4190   39.7636  -21.4075 C   0  0  0  0  0  0  0  0  0  0  0  0
  -17.9145   38.6276  -22.6765 Cl  0  0  0  0  0  0  0  0  0  0  0  0
  -19.1497   39.3014  -20.3249 C   0  0  0  0  0  0  0  0  0  0  0  0
  -19.5657   37.6084  -20.2208 Cl  0  0  0  0  0  0  0  0  0  0  0  0
  -19.5259   40.2029  -19.3592 C   0  0  0  0  0  0  0  0  0  0  0  0
  -20.4491   39.6756  -17.9709 Cl  0  0  0  0  0  0  0  0  0  0  0  0
  -19.1728   41.5272  -19.4878 C   0  0  0  0  0  0  0  0  0  0  0  0
  -19.6929   42.6587  -18.1939 Cl  0  0  0  0  0  0  0  0  0  0  0  0
  -18.4527   41.9609  -20.5627 C   0  0  0  0  0  0  0  0  0  0  0  0
  -18.0907   43.3538  -20.6821 C   0  0  0  0  0  0  0  0  0  0  0  0
  -16.8938   43.7715  -20.1321 C   0  0  0  0  0  0  0  0  0  0  0  0
  -15.9996   42.9557  -19.4669 C   0  0  0  0  0  0  0  0  0  0  0  0
  -14.8154   43.4366  -18.9381 C   0  0  0  0  0  0  0  0  0  0  0  0
  -13.5026   42.1407  -17.9393 I   0  0  0  0  0  0  0  0  0  0  0  0
  -14.5303   44.7982  -19.0918 C   0  0  0  0  0  0  0  0  0  0  0  0
  -13.4501   45.2132  -18.6041 O   0  0  0  0  0  0  0  0  0  0  0  0
  -15.3990   45.6538  -19.7523 C   0  0  0  0  0  0  0  0  0  0  0  0
  -14.8359   47.6750  -19.9052 I   0  0  0  0  0  0  0  0  0  0  0  0
  -16.5875   45.1872  -20.2867 C   0  0  0  0  0  0  0  0  0  0  0  0
  -17.4157   45.9877  -20.9129 O   0  0  0  0  0  0  0  0  0  0  0  0
  -18.5586   45.5306  -21.4249 C   0  0  0  0  0  0  0  0  0  0  0  0
  -19.4113   46.4138  -22.0830 C   0  0  0  0  0  0  0  0  0  0  0  0
  -18.8528   48.4343  -22.2382 I   0  0  0  0  0  0  0  0  0  0  0  0
  -20.5928   45.9742  -22.6197 C   0  0  0  0  0  0  0  0  0  0  0  0
  -21.4470   46.8559  -23.2782 O   0  0  0  0  0  1  0  0  0  0  0  0
  -20.9958   44.6516  -22.5382 C   0  0  0  0  0  0  0  0  0  0  0  0
  -22.8010   43.9592  -23.3535 I   0  0  0  0  0  0  0  0  0  0  0  0
  -20.1504   43.7878  -21.8884 C   0  0  0  0  0  0  0  0  0  0  0  0
  -18.9535   44.2139  -21.3404 C   0  0  0  0  0  0  0  0  0  0  0  0
  -18.0419   43.1998  -20.8166 Na  0  0  0  0  0 15  0  0  0  0  0  0
  -18.0419   43.1998  -20.8166 Na  0  0  0  0  0 15  0  0  0  0  0  0
  1  2  2  0
  2  3  1  0
  2  4  1  0
  4  5  2  0
  5  6  1  0
  5  7  1  0
  7  8  1  0
  7  9  2  0
  9 10  1  0
  9 11  1  0
 11 12  1  0
 11 13  2  0
 13 14  1  0
 14 15  2  0
 15 16  1  0
 16 17  2  0
 17 18  1  0
 17 19  1  0
 19 20  2  0
 19 21  1  0
 21 22  1  0
 21 23  2  0
 23 24  1  0
 24 25  1  0
 25 26  2  0
 26 27  1  0
 26 28  1  0
 28 29  1  0
 28 30  2  0
 30 31  1  0
 30 32  1  0
 32 33  2  0
 13  4  1  0
 33 14  1  0
 23 15  1  0
 33 25  1  0
M  CHG  4   3  -1  29  -1  34   1  35   1
M  END
$$$$
