
     RDKit          3D

 28 31  0  0  0  0  0  0  0  0999 V2000
  -20.5884   38.8603  -18.2591 O   0  0  0  0  0  0  0  0  0  0  0  0
  -20.1838   38.6507  -19.5691 C   0  0  0  0  0  0  0  0  0  0  0  0
  -19.9016   39.9684  -20.2541 C   0  0  1  0  0  0  0  0  0  0  0  0
  -18.6584   40.4682  -19.8933 O   0  0  0  0  0  0  0  0  0  0  0  0
  -18.2015   41.4168  -20.8087 C   0  0  1  0  0  0  0  0  0  0  0  0
  -17.0949   42.1874  -20.1868 C   0  0  0  0  0  0  0  0  0  0  0  0
  -16.5043   41.6657  -19.0564 C   0  0  0  0  0  0  0  0  0  0  0  0
  -15.4728   42.3686  -18.4668 C   0  0  0  0  0  0  0  0  0  0  0  0
  -15.0519   43.5722  -19.0122 C   0  0  0  0  0  0  0  0  0  0  0  0
  -14.0255   44.2589  -18.4143 F   0  0  0  0  0  0  0  0  0  0  0  0
  -15.6269   44.1134  -20.1410 C   0  0  0  0  0  0  0  0  0  0  0  0
  -15.1544   45.4050  -20.6995 C   0  0  0  0  0  0  0  0  0  0  0  0
  -16.2086   46.4246  -20.7801 C   0  0  0  0  0  0  0  0  0  0  0  0
  -16.4590   47.3984  -21.6836 C   0  0  0  0  0  0  0  0  0  0  0  0
  -17.5241   48.2023  -21.4923 C   0  0  0  0  0  0  0  0  0  0  0  0
  -17.9476   49.2670  -22.3193 C   0  0  0  0  0  0  0  0  0  0  0  0
  -19.0510   50.0211  -22.0280 C   0  0  0  0  0  0  0  0  0  0  0  0
  -19.8122   49.7899  -20.9173 C   0  0  0  0  0  0  0  0  0  0  0  0
  -19.4331   48.7593  -20.0830 C   0  0  0  0  0  0  0  0  0  0  0  0
  -18.3065   48.0083  -20.4033 C   0  0  0  0  0  0  0  0  0  0  0  0
  -17.4926   46.6132  -19.6053 S   0  0  0  0  0  0  0  0  0  0  0  0
  -16.6676   43.3894  -20.7234 C   0  0  0  0  0  0  0  0  0  0  0  0
  -17.7486   40.6503  -22.0182 C   0  0  2  0  0  0  0  0  0  0  0  0
  -17.1092   41.4539  -22.9648 O   0  0  0  0  0  0  0  0  0  0  0  0
  -18.9493   39.9458  -22.5976 C   0  0  1  0  0  0  0  0  0  0  0  0
  -18.6118   38.6532  -23.0115 O   0  0  0  0  0  0  0  0  0  0  0  0
  -20.1499   39.9537  -21.7187 C   0  0  2  0  0  0  0  0  0  0  0  0
  -21.0847   40.9429  -22.1093 O   0  0  0  0  0  0  0  0  0  0  0  0
  1  2  1  0
  3  2  1  6
  3  4  1  0
  4  5  1  0
  5  6  1  1
  6  7  2  0
  7  8  1  0
  8  9  2  0
  9 10  1  0
  9 11  1  0
 11 12  1  0
 12 13  1  0
 13 14  2  0
 14 15  1  0
 15 16  2  0
 16 17  1  0
 17 18  2  0
 18 19  1  0
 19 20  2  0
 20 21  1  0
 11 22  2  0
  5 23  1  0
 23 24  1  6
 23 25  1  0
 25 26  1  1
 25 27  1  0
 27 28  1  6
 27  3  1  0
 22  6  1  0
 21 13  1  0
 20 15  1  0
M  END
$$$$
