
     RDKit          3D

 19 22  0  0  0  0  0  0  0  0999 V2000
  -28.3922   28.3871  -36.7010 O   0  0  0  0  0  0  0  0  0  0  0  0
  -28.0625   27.1799  -36.6615 C   0  0  0  0  0  0  0  0  0  0  0  0
  -29.0088   26.0770  -36.8385 C   0  0  0  0  0  0  0  0  0  0  0  0
  -30.3871   26.0413  -37.0744 C   0  0  0  0  0  0  0  0  0  0  0  0
  -31.0433   24.8347  -37.2033 C   0  0  0  0  0  0  0  0  0  0  0  0
  -30.2860   23.6857  -37.0899 C   0  0  0  0  0  0  0  0  0  0  0  0
  -28.9260   23.7238  -36.8571 C   0  0  0  0  0  0  0  0  0  0  0  0
  -28.2539   24.9277  -36.7256 C   0  0  0  0  0  0  0  0  0  0  0  0
  -26.8839   25.2751  -36.4867 N   0  0  0  0  0  0  0  0  0  0  0  0
  -26.7303   26.6098  -36.4419 C   0  0  0  0  0  0  0  0  0  0  0  0
  -25.5266   27.1914  -36.2282 N   0  0  0  0  0  0  0  0  0  0  0  0
  -24.4615   26.4033  -36.0573 C   0  0  0  0  0  0  0  0  0  0  0  0
  -23.1853   26.9335  -35.8319 C   0  0  0  0  0  0  0  0  0  0  0  0
  -22.1222   26.1065  -35.6619 C   0  0  0  0  0  0  0  0  0  0  0  0
  -22.2371   24.7357  -35.7006 C   0  0  0  0  0  0  0  0  0  0  0  0
  -23.4894   24.2059  -35.9219 C   0  0  0  0  0  0  0  0  0  0  0  0
  -24.5900   25.0344  -36.0983 C   0  0  0  0  0  0  0  0  0  0  0  0
  -25.8247   24.4646  -36.3171 C   0  0  0  0  0  0  0  0  0  0  0  0
  -25.9635   23.2167  -36.3582 O   0  0  0  0  0  0  0  0  0  0  0  0
  1  2  2  0
  2  3  1  0
  3  4  2  0
  4  5  1  0
  5  6  2  0
  6  7  1  0
  7  8  2  0
  8  9  1  0
  9 10  1  0
 10 11  2  0
 11 12  1  0
 12 13  2  0
 13 14  1  0
 14 15  2  0
 15 16  1  0
 16 17  2  0
 17 18  1  0
 18 19  2  0
 10  2  1  0
 17 12  1  0
  8  3  1  0
 18  9  1  0
M  END
$$$$
