
     RDKit          3D

 31 34  0  0  0  0  0  0  0  0999 V2000
  -20.6427   -0.8837  -25.0333 C   0  0  0  0  0  0  0  0  0  0  0  0
  -19.5191   -1.8469  -24.9157 C   0  0  0  0  0  0  0  0  0  0  0  0
  -19.3586   -2.5202  -23.7262 C   0  0  0  0  0  0  0  0  0  0  0  0
  -18.3318   -3.4212  -23.5738 C   0  0  0  0  0  0  0  0  0  0  0  0
  -17.4065   -3.7062  -24.5898 C   0  0  0  0  0  0  0  0  0  0  0  0
  -16.3767   -4.6783  -24.2799 C   0  0  0  0  0  0  0  0  0  0  0  0
  -15.0296   -4.3967  -24.6146 N   0  0  0  0  0  0  0  0  0  0  0  0
  -14.3083   -4.9561  -25.5906 C   0  0  0  0  0  0  0  0  0  0  0  0
  -14.6170   -6.0668  -26.5246 C   0  0  0  0  0  0  0  0  0  0  0  0
  -14.5881   -5.7365  -27.9002 N   0  0  0  0  0  0  0  0  0  0  0  0
  -13.6049   -6.2925  -28.7317 C   0  0  0  0  0  0  0  0  0  0  0  0
  -15.9070   -5.8582  -28.4612 C   0  0  0  0  0  0  0  0  0  0  0  0
  -16.2290   -4.8197  -29.4479 C   0  0  0  0  0  0  0  0  0  0  0  0
  -15.3722   -3.7942  -29.7830 C   0  0  0  0  0  0  0  0  0  0  0  0
  -15.6880   -2.8077  -30.7165 C   0  0  0  0  0  0  0  0  0  0  0  0
  -16.9195   -2.8633  -31.3338 C   0  0  0  0  0  0  0  0  0  0  0  0
  -17.7822   -3.8736  -31.0140 C   0  0  0  0  0  0  0  0  0  0  0  0
  -17.4667   -4.8416  -30.0949 C   0  0  0  0  0  0  0  0  0  0  0  0
  -13.0935   -4.3602  -25.6156 N   0  0  0  0  0  0  0  0  0  0  0  0
  -13.0006   -3.4162  -24.6699 C   0  0  0  0  0  0  0  0  0  0  0  0
  -14.2345   -3.4415  -24.0344 C   0  0  0  0  0  0  0  0  0  0  0  0
  -14.4392   -2.5505  -23.0006 C   0  0  0  0  0  0  0  0  0  0  0  0
  -15.5213   -2.4928  -22.3661 O   0  0  0  0  0  0  0  0  0  0  0  0
  -13.4152   -1.7169  -22.6821 N   0  0  0  0  0  0  0  0  0  0  0  0
  -13.6526   -0.7892  -21.5918 C   0  0  0  0  0  0  0  0  0  0  0  0
  -12.2350   -1.7301  -23.3267 C   0  0  0  0  0  0  0  0  0  0  0  0
  -11.2906   -0.9397  -23.0097 O   0  0  0  0  0  0  0  0  0  0  0  0
  -12.0034   -2.5792  -24.3333 N   0  0  0  0  0  0  0  0  0  0  0  0
  -10.7217   -2.5721  -25.0115 C   0  0  0  0  0  0  0  0  0  0  0  0
  -17.6025   -3.0158  -25.7534 C   0  0  0  0  0  0  0  0  0  0  0  0
  -18.6334   -2.1067  -25.9166 C   0  0  0  0  0  0  0  0  0  0  0  0
  1  2  1  0
  2  3  2  0
  3  4  1  0
  4  5  2  0
  5  6  1  0
  6  7  1  0
  7  8  1  0
  8  9  1  0
  9 10  1  0
 10 11  1  0
 10 12  1  0
 12 13  1  0
 13 14  2  0
 14 15  1  0
 15 16  2  0
 16 17  1  0
 17 18  2  0
  8 19  2  0
 19 20  1  0
 20 21  2  0
 21 22  1  0
 22 23  2  0
 22 24  1  0
 24 25  1  0
 24 26  1  0
 26 27  2  0
 26 28  1  0
 28 29  1  0
  5 30  1  0
 30 31  2  0
 31  2  1  0
 21  7  1  0
 18 13  1  0
 28 20  1  0
M  END
$$$$
