
     RDKit          3D

 16 17  0  0  0  0  0  0  0  0999 V2000
  -17.3975   34.8163  -22.6624 C   0  0  0  0  0  0  0  0  0  0  0  0
  -18.4424   34.9620  -21.6046 C   0  0  0  0  0  0  0  0  0  0  0  0
  -19.1450   36.2861  -21.7354 C   0  0  0  0  0  0  0  0  0  0  0  0
  -20.0845   36.7835  -22.2565 N   0  0  0  0  0  0  0  0  0  0  0  0
  -20.4343   38.0298  -22.1620 N   0  0  0  0  0  0  0  0  0  0  0  0
  -19.8224   38.8375  -21.5148 C   0  0  0  0  0  0  0  0  0  0  0  0
  -19.9418   40.2355  -21.2181 N   0  0  0  0  0  0  0  0  0  0  0  0
  -19.1268   40.8395  -20.2275 C   0  0  0  0  0  0  0  0  0  0  0  0
  -18.2479   40.1035  -19.6866 O   0  0  0  0  0  0  0  0  0  0  0  0
  -19.2649   42.2505  -19.8203 C   0  0  0  0  0  0  0  0  0  0  0  0
  -18.1658   42.8990  -19.2994 C   0  0  0  0  0  0  0  0  0  0  0  0
  -18.2862   44.2187  -18.9159 C   0  0  0  0  0  0  0  0  0  0  0  0
  -19.4695   44.9171  -19.0345 C   0  0  0  0  0  0  0  0  0  0  0  0
  -20.5230   44.2581  -19.5456 N   0  0  0  0  0  0  0  0  0  0  0  0
  -20.4353   42.9609  -19.9313 C   0  0  0  0  0  0  0  0  0  0  0  0
  -18.4493   37.7967  -20.8386 S   0  0  0  0  0  0  0  0  0  0  0  0
  1  2  1  0
  2  3  1  0
  3  4  2  0
  4  5  1  0
  5  6  2  0
  6  7  1  0
  7  8  1  0
  8  9  2  0
  8 10  1  0
 10 11  2  0
 11 12  1  0
 12 13  2  0
 13 14  1  0
 14 15  2  0
  6 16  1  0
 16  3  1  0
 15 10  1  0
M  END
$$$$
