
     RDKit          3D

 17 18  0  0  0  0  0  0  0  0999 V2000
  -17.2041   42.8132  -19.2911 Cl  0  0  0  0  0  0  0  0  0  0  0  0
  -15.5770   41.5849  -21.9669 Cl  0  0  0  0  0  0  0  0  0  0  0  0
  -17.2565   41.2445  -21.5491 C   0  0  0  0  0  0  0  0  0  0  0  0
  -18.2049   40.9674  -22.5016 C   0  0  0  0  0  0  0  0  0  0  0  0
  -19.5061   40.7055  -22.1535 C   0  0  0  0  0  0  0  0  0  0  0  0
  -19.9185   40.7111  -20.8018 C   0  0  0  0  0  0  0  0  0  0  0  0
  -21.1375   40.4688  -20.4322 N   0  0  0  0  0  0  0  0  0  0  0  0
  -21.1237   40.6030  -18.5962 S   0  0  0  0  0  0  0  0  0  0  0  0
  -19.4002   40.9809  -18.6250 N   0  0  0  0  0  0  0  0  0  0  0  0
  -18.9921   40.9820  -19.8687 C   0  0  0  0  0  0  0  0  0  0  0  0
  -17.6606   41.2493  -20.2357 C   0  0  0  0  0  0  0  0  0  0  0  0
  -16.6655   41.5395  -19.2440 N   0  0  0  0  0  0  0  0  0  0  0  0
  -16.4346   42.8713  -18.8383 C   0  0  0  0  0  0  0  0  0  0  0  0
  -16.8800   43.8965  -19.4807 N   0  0  0  0  0  0  0  0  0  0  0  0
  -16.4822   45.1238  -18.8238 C   0  0  0  0  0  0  0  0  0  0  0  0
  -16.0632   44.6627  -17.4676 C   0  0  0  0  0  0  0  0  0  0  0  0
  -15.7018   43.2818  -17.6959 N   0  0  0  0  0  0  0  0  0  0  0  0
  2  3  1  0
  3  4  1  0
  4  5  2  0
  5  6  1  0
  6  7  2  0
  7  8  1  0
  8  9  1  0
  9 10  2  0
 10 11  1  0
 11 12  1  0
 12 13  1  0
 13 14  2  0
 14 15  1  0
 15 16  1  0
 16 17  1  0
 11  3  2  0
 17 13  1  0
 10  6  1  0
M  END
$$$$
