
     RDKit          3D

 18 17  0  0  0  0  0  0  0  0999 V2000
  -11.0859   24.4062  -47.0911 C   0  0  0  0  0  0  0  0  0  0  0  0
  -10.2021   23.6065  -46.1824 C   0  0  0  0  0  0  0  0  0  0  0  0
  -10.9191   22.3615  -45.6685 C   0  0  0  0  0  0  0  0  0  0  0  0
   -9.9477   21.6512  -44.7389 C   0  0  0  0  0  0  0  0  0  0  0  0
  -10.5174   20.3786  -44.1886 C   0  0  0  0  0  0  0  0  0  0  0  0
   -9.4628   19.7539  -43.2641 C   0  0  0  0  0  0  0  0  0  0  0  0
  -10.1324   18.8499  -42.2732 C   0  0  0  0  0  0  0  0  0  0  0  0
  -11.5594   19.2949  -42.0682 C   0  0  0  0  0  0  0  0  0  0  0  0
  -12.4639   18.1005  -42.0104 C   0  0  0  0  0  0  0  0  0  0  0  0
  -13.9099   18.5319  -41.9206 C   0  0  0  0  0  0  0  0  0  0  0  0
  -14.7236   17.3925  -41.3253 C   0  0  0  0  0  0  0  0  0  0  0  0
  -15.2080   17.7292  -39.9516 C   0  0  0  0  0  0  0  0  0  0  0  0
  -16.6727   17.5392  -39.8257 C   0  0  0  0  0  0  0  0  0  0  0  0
  -17.1515   17.9082  -38.4429 C   0  0  0  0  0  0  0  0  0  0  0  0
  -18.5235   18.5704  -38.6515 C   0  0  0  0  0  0  0  0  0  0  0  0
  -19.5238   17.4971  -38.5671 C   0  0  0  0  0  0  0  0  0  0  0  0
  -19.9821   17.1711  -37.4386 O   0  0  0  0  0  0  0  0  0  0  0  0
  -20.0180   16.7947  -39.6821 O   0  0  0  0  0  0  0  0  0  0  0  0
  1  2  1  0
  2  3  1  0
  3  4  1  0
  4  5  1  0
  5  6  1  0
  6  7  1  0
  7  8  1  0
  8  9  1  0
  9 10  1  0
 10 11  1  0
 11 12  1  0
 12 13  1  0
 13 14  1  0
 14 15  1  0
 15 16  1  0
 16 17  2  0
 16 18  1  0
M  END
$$$$
