
     RDKit          3D

 59 63  0  0  0  0  0  0  0  0999 V2000
  -21.1538   13.5378  -32.7510 C   0  0  0  0  0  0  0  0  0  0  0  0
  -21.3023   14.2746  -33.8579 O   0  0  0  0  0  0  0  0  0  0  0  0
  -21.3785   15.5715  -33.9542 C   0  0  1  0  0  0  0  0  0  0  0  0
  -20.0968   16.3812  -33.9227 C   0  0  0  0  0  0  0  0  0  0  0  0
  -18.9316   16.2987  -34.5111 C   0  0  0  0  0  0  0  0  0  0  0  0
  -17.8501   17.1121  -34.3858 O   0  0  0  0  0  0  0  0  0  0  0  0
  -16.7146   17.6272  -34.0263 C   0  0  1  0  0  0  0  0  0  0  0  0
  -15.6918   16.6536  -33.5497 C   0  0  0  0  0  0  0  0  0  0  0  0
  -16.1038   18.4249  -35.1460 O   0  0  0  0  0  0  0  0  0  0  0  0
  -17.0206   19.5234  -35.1504 C   0  0  0  0  0  0  0  0  0  0  0  0
  -17.4768   20.1997  -36.2245 C   0  0  0  0  0  0  0  0  0  0  0  0
  -17.0454   19.9551  -37.6309 C   0  0  0  0  0  0  0  0  0  0  0  0
  -18.4029   21.1966  -35.9500 C   0  0  0  0  0  0  0  0  0  0  0  0
  -18.8999   21.9037  -37.0156 O   0  0  0  0  0  0  0  0  0  0  0  0
  -18.8126   21.4672  -34.6589 C   0  0  0  0  0  0  0  0  0  0  0  0
  -19.8505   22.4721  -34.5115 C   0  0  0  0  0  0  0  0  0  0  0  0
  -20.0924   22.9708  -35.8479 O   0  0  0  0  0  0  0  0  0  0  0  0
  -20.3751   22.7865  -33.2917 C   0  0  0  0  0  0  0  0  0  0  0  0
  -19.8666   22.1487  -32.1890 C   0  0  0  0  0  0  0  0  0  0  0  0
  -19.8302   22.5819  -30.6975 C   0  0  0  0  0  0  0  0  0  0  0  0
  -20.8760   22.6444  -30.0673 N   0  0  0  0  0  0  0  0  0  0  0  0
  -21.9969   22.6443  -29.5094 N   0  0  0  0  0  0  0  0  0  0  0  0
  -23.0787   21.7109  -29.9177 C   0  0  0  0  0  0  0  0  0  0  0  0
  -23.5958   21.1238  -28.6293 C   0  0  0  0  0  0  0  0  0  0  0  0
  -22.5231   21.1706  -27.6188 N   0  0  0  0  0  0  0  0  0  0  0  0
  -22.9101   20.4008  -26.4804 C   0  0  0  0  0  0  0  0  0  0  0  0
  -22.4318   22.5800  -27.1799 C   0  0  0  0  0  0  0  0  0  0  0  0
  -22.3651   23.5042  -28.3864 C   0  0  0  0  0  0  0  0  0  0  0  0
  -18.8496   21.1371  -32.3409 C   0  0  0  0  0  0  0  0  0  0  0  0
  -18.5726   20.6519  -31.0109 O   0  0  0  0  0  0  0  0  0  0  0  0
  -18.3326   20.7812  -33.5248 C   0  0  0  0  0  0  0  0  0  0  0  0
  -17.4196   19.8010  -33.8659 C   0  0  0  0  0  0  0  0  0  0  0  0
  -16.7071   18.8142  -33.0592 C   0  0  0  0  0  0  0  0  0  0  0  0
  -16.1621   18.6849  -31.9437 O   0  0  0  0  0  0  0  0  0  0  0  0
  -21.7655   23.3705  -33.2296 N   0  0  0  0  0  0  0  0  0  0  0  0
  -22.8095   22.2313  -32.9749 C   0  0  0  0  0  0  0  0  0  0  0  0
  -23.9032   22.6650  -32.7830 O   0  0  0  0  0  0  0  0  0  0  0  0
  -22.2815   20.8262  -33.0114 C   0  0  0  0  0  0  0  0  0  0  0  0
  -22.6419   20.2667  -31.5752 C   0  0  0  0  0  0  0  0  0  0  0  0
  -21.8730   20.0352  -33.9803 C   0  0  0  0  0  0  0  0  0  0  0  0
  -21.8073   20.1409  -35.5187 C   0  0  0  0  0  0  0  0  0  0  0  0
  -22.8045   20.4035  -36.3201 C   0  0  0  0  0  0  0  0  0  0  0  0
  -23.8217   20.6807  -37.2637 C   0  0  2  0  0  0  0  0  0  0  0  0
  -24.8336   21.6980  -36.6265 C   0  0  0  0  0  0  0  0  0  0  0  0
  -24.6560   19.5861  -37.8248 C   0  0  2  0  0  0  0  0  0  0  0  0
  -25.5297   20.2144  -38.7626 O   0  0  0  0  0  0  0  0  0  0  0  0
  -25.5066   18.7973  -36.8995 C   0  0  1  0  0  0  0  0  0  0  0  0
  -26.8421   18.5708  -37.5941 C   0  0  0  0  0  0  0  0  0  0  0  0
  -24.9096   17.3954  -36.7508 C   0  0  1  0  0  0  0  0  0  0  0  0
  -23.9792   17.1520  -37.7567 O   0  0  0  0  0  0  0  0  0  0  0  0
  -24.2396   17.2125  -35.4200 C   0  0  1  0  0  0  0  0  0  0  0  0
  -25.2037   17.3772  -34.3047 C   0  0  0  0  0  0  0  0  0  0  0  0
  -23.5244   15.8212  -35.3358 C   0  0  2  0  0  0  0  0  0  0  0  0
  -24.2344   15.1515  -34.3499 O   0  0  0  0  0  0  0  0  0  0  0  0
  -25.6308   15.2493  -34.4017 C   0  0  0  0  0  0  0  0  0  0  0  0
  -26.3430   16.0774  -33.3791 C   0  0  0  0  0  0  0  0  0  0  0  0
  -26.3136   14.6793  -35.2812 O   0  0  0  0  0  0  0  0  0  0  0  0
  -22.0685   15.9938  -35.2335 C   0  0  2  0  0  0  0  0  0  0  0  0
  -21.2925   15.4375  -36.4315 C   0  0  0  0  0  0  0  0  0  0  0  0
  1  2  1  0
  3  2  1  6
  3  4  1  0
  4  5  2  0
  5  6  1  0
  6  7  1  0
  7  8  1  1
  7  9  1  0
  9 10  1  0
 10 11  2  0
 11 12  1  0
 11 13  1  0
 13 14  1  0
 13 15  2  0
 15 16  1  0
 16 17  1  0
 16 18  2  0
 18 19  1  0
 19 20  1  0
 20 21  2  0
 21 22  1  0
 22 23  1  0
 23 24  1  0
 24 25  1  0
 25 26  1  0
 25 27  1  0
 27 28  1  0
 19 29  2  0
 29 30  1  0
 29 31  1  0
 31 32  2  0
 32 33  1  0
 33 34  2  0
 18 35  1  0
 35 36  1  0
 36 37  2  0
 36 38  1  0
 38 39  1  0
 38 40  2  0
 40 41  1  0
 41 42  2  0
 42 43  1  0
 43 44  1  1
 43 45  1  0
 45 46  1  6
 45 47  1  0
 47 48  1  6
 47 49  1  0
 49 50  1  6
 49 51  1  0
 51 52  1  1
 51 53  1  0
 53 54  1  1
 54 55  1  0
 55 56  1  0
 55 57  2  0
 53 58  1  0
 58 59  1  6
 58  3  1  0
 33  7  1  0
 32 10  1  0
 31 15  1  0
 28 22  1  0
M  END
$$$$
