
     RDKit          3D

 28 32  0  0  0  0  0  0  0  0999 V2000
  -21.1966   46.4227  -20.4199 C   0  0  0  0  0  0  0  0  0  0  0  0
  -20.7107   45.0717  -20.9638 C   0  0  2  0  0  0  0  0  0  0  0  0
  -19.9610   45.4027  -22.2488 C   0  0  0  0  0  0  0  0  0  0  0  0
  -19.4403   44.1033  -22.8323 C   0  0  0  0  0  0  0  0  0  0  0  0
  -18.1870   43.7614  -22.0738 C   0  0  0  0  0  0  0  0  0  0  0  0
  -17.5064   44.7686  -21.4534 N   0  0  0  0  0  0  0  0  0  0  0  0
  -16.3814   44.5821  -20.7520 C   0  0  0  0  0  0  0  0  0  0  0  0
  -15.8423   43.3228  -20.6208 C   0  0  0  0  0  0  0  0  0  0  0  0
  -14.7036   43.0795  -19.9203 F   0  0  0  0  0  0  0  0  0  0  0  0
  -16.5047   42.2859  -21.2346 C   0  0  0  0  0  0  0  0  0  0  0  0
  -17.6802   42.4957  -21.9648 C   0  0  0  0  0  0  0  0  0  0  0  0
  -18.2723   41.2742  -22.5663 C   0  0  1  0  0  0  0  0  0  0  0  0
  -17.3334   40.5987  -23.5247 C   0  0  0  0  0  0  0  0  0  0  0  0
  -16.9896   39.2686  -22.9409 C   0  0  0  0  0  0  0  0  0  0  0  0
  -18.0825   38.9754  -21.9389 C   0  0  0  0  0  0  0  0  0  0  0  0
  -18.6240   40.2933  -21.5754 N   0  0  0  0  0  0  0  0  0  0  0  0
  -19.3913   40.6186  -20.4250 C   0  0  0  0  0  0  0  0  0  0  0  0
  -19.1416   39.9863  -19.1997 C   0  0  0  0  0  0  0  0  0  0  0  0
  -19.8980   40.3130  -18.1035 C   0  0  0  0  0  0  0  0  0  0  0  0
  -20.8653   41.2263  -18.2015 N   0  0  0  0  0  0  0  0  0  0  0  0
  -21.7201   41.7201  -17.3579 N   0  0  0  0  0  0  0  0  0  0  0  0
  -22.5169   42.6444  -17.9718 C   0  0  0  0  0  0  0  0  0  0  0  0
  -22.0951   42.7057  -19.3066 C   0  0  0  0  0  0  0  0  0  0  0  0
  -21.0752   41.8143  -19.4018 C   0  0  0  0  0  0  0  0  0  0  0  0
  -20.3736   41.5347  -20.4888 N   0  0  0  0  0  0  0  0  0  0  0  0
  -22.6437   43.5453  -20.3603 C   0  0  0  0  0  0  0  0  0  0  0  0
  -23.9219   43.6847  -20.4572 O   0  0  0  0  0  0  0  0  0  0  0  0
  -21.8446   44.2481  -21.3245 N   0  0  0  0  0  0  0  0  0  0  0  0
  2  1  1  6
  2  3  1  0
  3  4  1  0
  4  5  1  0
  5  6  2  0
  6  7  1  0
  7  8  2  0
  8  9  1  0
  8 10  1  0
 10 11  2  0
 11 12  1  0
 12 13  1  6
 13 14  1  0
 14 15  1  0
 15 16  1  0
 16 17  1  0
 17 18  1  0
 18 19  2  0
 19 20  1  0
 20 21  1  0
 21 22  2  0
 22 23  1  0
 23 24  2  0
 24 25  1  0
 23 26  1  0
 26 27  2  0
 26 28  1  0
 28  2  1  0
 11  5  1  0
 16 12  1  0
 25 17  2  0
 24 20  1  0
M  END
$$$$
