
     RDKit          3D

 24 27  0  0  0  0  0  0  0  0999 V2000
   -4.3688    5.7433  -38.4106 C   0  0  0  0  0  0  0  0  0  0  0  0
   -3.6264    6.7618  -39.2275 C   0  0  0  0  0  0  0  0  0  0  0  0
   -2.9877    6.5194  -40.3851 N   0  0  0  0  0  0  0  0  0  0  0  0
   -2.4330    7.6631  -40.8399 C   0  0  0  0  0  0  0  0  0  0  0  0
   -1.6833    8.0074  -41.9430 C   0  0  0  0  0  0  0  0  0  0  0  0
   -1.2567    9.3013  -42.1244 C   0  0  0  0  0  0  0  0  0  0  0  0
   -1.5848   10.2605  -41.1905 C   0  0  0  0  0  0  0  0  0  0  0  0
   -1.1194   11.5853  -41.4238 N   0  0  0  0  0  0  0  0  0  0  0  0
   -1.9866   12.6829  -41.7440 C   0  0  0  0  0  0  0  0  0  0  0  0
   -3.1463   12.5920  -41.3174 O   0  0  0  0  0  0  0  0  0  0  0  0
   -1.5367   13.7911  -42.4977 N   0  0  0  0  0  0  0  0  0  0  0  0
   -2.1564   15.0512  -42.5399 C   0  0  0  0  0  0  0  0  0  0  0  0
   -3.4828   15.2630  -42.7715 C   0  0  0  0  0  0  0  0  0  0  0  0
   -3.9758   16.5670  -42.7879 C   0  0  0  0  0  0  0  0  0  0  0  0
   -3.1896   17.6381  -42.5827 N   0  0  0  0  0  0  0  0  0  0  0  0
   -1.8841   17.4452  -42.3538 C   0  0  0  0  0  0  0  0  0  0  0  0
   -1.0571   18.5168  -42.1410 C   0  0  0  0  0  0  0  0  0  0  0  0
    0.2894   18.3181  -41.9050 C   0  0  0  0  0  0  0  0  0  0  0  0
    0.7922   17.0364  -41.8855 C   0  0  0  0  0  0  0  0  0  0  0  0
   -0.0531   16.0319  -42.0979 N   0  0  0  0  0  0  0  0  0  0  0  0
   -1.3717   16.1757  -42.3319 C   0  0  0  0  0  0  0  0  0  0  0  0
   -2.3302    9.9151  -40.0951 C   0  0  0  0  0  0  0  0  0  0  0  0
   -2.7569    8.6251  -39.9118 C   0  0  0  0  0  0  0  0  0  0  0  0
   -3.4713    8.0351  -38.9672 O   0  0  0  0  0  0  0  0  0  0  0  0
  1  2  1  0
  2  3  2  0
  3  4  1  0
  4  5  2  0
  5  6  1  0
  6  7  2  0
  7  8  1  0
  8  9  1  0
  9 10  2  0
  9 11  1  0
 11 12  1  0
 12 13  2  0
 13 14  1  0
 14 15  2  0
 15 16  1  0
 16 17  2  0
 17 18  1  0
 18 19  2  0
 19 20  1  0
 20 21  2  0
  7 22  1  0
 22 23  2  0
 23 24  1  0
 24  2  1  0
 23  4  1  0
 21 12  1  0
 21 16  1  0
M  END
$$$$
