
     RDKit          3D

 24 28  0  0  0  0  0  0  0  0999 V2000
  -19.6815   41.4628  -20.9725 O   0  0  0  0  0  0  0  0  0  0  0  0
  -18.6790   41.4933  -21.7664 C   0  0  0  0  0  0  0  0  0  0  0  0
  -17.7816   40.3378  -21.7925 C   0  0  0  0  0  0  0  0  0  0  0  0
  -18.4400   39.1004  -21.3938 N   0  0  0  0  0  0  0  0  0  0  0  0
  -18.8922   38.7034  -19.7680 S   0  0  0  0  0  0  0  0  0  0  0  0
  -19.5956   37.0871  -20.1278 C   0  0  0  0  0  0  0  0  0  0  0  0
  -20.1884   36.1033  -19.3496 C   0  0  0  0  0  0  0  0  0  0  0  0
  -20.6388   34.9455  -19.9586 C   0  0  0  0  0  0  0  0  0  0  0  0
  -20.4795   34.8189  -21.3119 C   0  0  0  0  0  0  0  0  0  0  0  0
  -19.8907   35.8072  -22.0426 C   0  0  0  0  0  0  0  0  0  0  0  0
  -19.4090   37.0141  -21.4809 C   0  0  0  0  0  0  0  0  0  0  0  0
  -18.8143   38.0680  -22.0838 C   0  0  0  0  0  0  0  0  0  0  0  0
  -18.5998   38.0795  -23.3719 O   0  0  0  0  0  0  0  0  0  0  0  0
  -18.5459   42.6694  -22.5485 N   0  0  0  0  0  0  0  0  0  0  0  0
  -18.8129   43.9929  -22.0302 C   0  0  0  0  0  0  0  0  0  0  0  0
  -18.1115   45.0998  -22.7478 C   0  0  0  0  0  0  0  0  0  0  0  0
  -18.5204   46.4029  -22.1113 C   0  0  0  0  0  0  0  0  0  0  0  0
  -19.9989   46.6749  -22.2752 C   0  0  0  0  0  0  0  0  0  0  0  0
  -20.7526   45.5418  -21.6307 C   0  0  0  0  0  0  0  0  0  0  0  0
  -20.4261   45.4958  -20.1555 C   0  0  0  0  0  0  0  0  0  0  0  0
  -18.9508   45.3525  -19.9461 C   0  0  0  0  0  0  0  0  0  0  0  0
  -18.1957   46.4851  -20.6431 C   0  0  0  0  0  0  0  0  0  0  0  0
  -18.4967   44.0487  -20.5530 C   0  0  0  0  0  0  0  0  0  0  0  0
  -20.3143   44.2473  -22.2468 C   0  0  0  0  0  0  0  0  0  0  0  0
  1  2  2  0
  2  3  1  0
  3  4  1  0
  4  5  1  0
  5  6  1  0
  6  7  2  0
  7  8  1  0
  8  9  2  0
  9 10  1  0
 10 11  2  0
 11 12  1  0
 12 13  2  0
  2 14  1  0
 14 15  1  0
 15 16  1  0
 16 17  1  0
 17 18  1  0
 18 19  1  0
 19 20  1  0
 20 21  1  0
 21 22  1  0
 21 23  1  0
 19 24  1  0
 12  4  1  0
 23 15  1  0
 11  6  1  0
 24 15  1  0
 22 17  1  0
M  END
$$$$
