
     RDKit          3D

 24 25  0  0  0  0  0  0  0  0999 V2000
  -20.2661   36.0875  -22.9745 C   0  0  0  0  0  0  0  0  0  0  0  0
  -19.6094   36.5915  -21.7650 N   0  0  0  0  0  0  0  0  0  0  0  0
  -18.3096   37.6609  -22.1925 S   0  0  0  0  0  6  0  0  0  0  0  0
  -17.5997   38.0388  -20.9405 O   0  0  0  0  0  0  0  0  0  0  0  0
  -17.3062   36.8965  -23.0373 O   0  0  0  0  0  0  0  0  0  0  0  0
  -18.9527   39.0458  -23.0745 C   0  0  0  0  0  0  0  0  0  0  0  0
  -19.9260   39.8380  -22.2763 C   0  0  0  0  0  0  0  0  0  0  0  0
  -19.3724   40.4283  -21.0307 C   0  0  0  0  0  0  0  0  0  0  0  0
  -19.4225   39.8102  -19.8025 C   0  0  0  0  0  0  0  0  0  0  0  0
  -18.8969   40.3645  -18.6460 C   0  0  0  0  0  0  0  0  0  0  0  0
  -18.2913   41.6064  -18.7402 C   0  0  0  0  0  0  0  0  0  0  0  0
  -17.7005   42.3924  -17.8252 N   0  0  0  0  0  0  0  0  0  0  0  0
  -17.2739   43.5023  -18.4476 C   0  0  0  0  0  0  0  0  0  0  0  0
  -17.5965   43.4285  -19.7879 C   0  0  0  0  0  0  0  0  0  0  0  0
  -17.2848   44.4573  -20.7583 C   0  0  0  0  0  0  0  0  0  0  0  0
  -15.9746   44.3426  -21.4517 C   0  0  0  0  0  0  0  0  0  0  0  0
  -15.6577   45.6762  -22.1284 C   0  0  0  0  0  0  0  0  0  0  0  0
  -15.4632   46.7378  -21.1998 N   0  0  0  0  0  0  0  0  0  0  0  0
  -16.1907   47.9032  -21.6710 C   0  0  0  0  0  0  0  0  0  0  0  0
  -15.9538   46.3944  -19.9035 C   0  0  0  0  0  0  0  0  0  0  0  0
  -17.3386   45.8067  -20.0699 C   0  0  0  0  0  0  0  0  0  0  0  0
  -18.2441   42.2248  -19.9815 C   0  0  0  0  0  0  0  0  0  0  0  0
  -18.7672   41.6701  -21.1258 C   0  0  0  0  0  0  0  0  0  0  0  0
  -18.1096   41.5418  -21.2105 Cl  0  0  0  0  0  0  0  0  0  0  0  0
  1  2  1  0
  2  3  1  0
  3  4  2  0
  3  5  2  0
  3  6  1  0
  6  7  1  0
  7  8  1  0
  8  9  2  0
  9 10  1  0
 10 11  2  0
 11 12  1  0
 12 13  1  0
 13 14  2  0
 14 15  1  0
 15 16  1  0
 16 17  1  0
 17 18  1  0
 18 19  1  0
 18 20  1  0
 20 21  1  0
 14 22  1  0
 22 23  2  0
 23  8  1  0
 22 11  1  0
 21 15  1  0
M  END
$$$$
