
     RDKit          3D

 30 32  0  0  0  0  0  0  0  0999 V2000
  -16.6083   46.2153  -18.7575 C   0  0  0  0  0  0  0  0  0  0  0  0
  -16.2705   44.8955  -19.4107 C   0  0  0  0  0  0  0  0  0  0  0  0
  -17.1775   44.1706  -20.0737 N   0  0  0  0  0  0  0  0  0  0  0  0
  -17.0804   43.1857  -20.6046 C   0  0  0  0  0  0  0  0  0  0  0  0
  -17.8338   42.1623  -21.3938 N   0  0  0  0  0  0  0  0  0  0  0  0
  -18.0480   40.8795  -20.8401 C   0  0  0  0  0  0  0  0  0  0  0  0
  -17.5308   40.6837  -19.6914 O   0  0  0  0  0  0  0  0  0  0  0  0
  -18.7767   39.8619  -21.4826 N   0  0  0  0  0  0  0  0  0  0  0  0
  -19.4127   39.9878  -22.7732 C   0  0  0  0  0  0  0  0  0  0  0  0
  -20.7408   39.2694  -22.5106 C   0  0  0  0  0  0  0  0  0  0  0  0
  -20.2591   38.0385  -21.7737 C   0  0  0  0  0  0  0  0  0  0  0  0
  -19.0414   38.5216  -21.0171 C   0  0  1  0  0  0  0  0  0  0  0  0
  -17.8758   37.6260  -21.2195 C   0  0  0  0  0  0  0  0  0  0  0  0
  -17.6086   36.5071  -20.3863 N   0  0  0  0  0  0  0  0  0  0  0  0
  -17.0956   37.8758  -22.1728 O   0  0  0  0  0  0  0  0  0  0  0  0
  -15.2511   42.8021  -20.3127 S   0  0  0  0  0  0  0  0  0  0  0  0
  -15.0412   44.3602  -19.3717 C   0  0  0  0  0  0  0  0  0  0  0  0
  -13.7359   44.7262  -18.8013 C   0  0  0  0  0  0  0  0  0  0  0  0
  -12.5773   44.2910  -19.4362 C   0  0  0  0  0  0  0  0  0  0  0  0
  -11.3617   44.6068  -18.9416 C   0  0  0  0  0  0  0  0  0  0  0  0
  -11.2657   45.3465  -17.8288 N   0  0  0  0  0  0  0  0  0  0  0  0
  -12.3506   45.7870  -17.1847 C   0  0  0  0  0  0  0  0  0  0  0  0
  -12.2176   46.6070  -15.9504 C   0  0  0  0  0  0  0  0  0  0  0  0
  -10.9468   47.4355  -16.0266 C   0  0  0  0  0  0  0  0  0  0  0  0
  -13.4189   47.5094  -15.8495 C   0  0  0  0  0  0  0  0  0  0  0  0
  -12.1744   45.6633  -14.7727 C   0  0  0  0  0  0  0  0  0  0  0  0
  -12.1770   46.3263  -13.5733 F   0  0  0  0  0  0  0  0  0  0  0  0
  -13.2807   44.8224  -14.9007 F   0  0  0  0  0  0  0  0  0  0  0  0
  -11.0552   44.8619  -14.9203 F   0  0  0  0  0  0  0  0  0  0  0  0
  -13.6035   45.4771  -17.6709 C   0  0  0  0  0  0  0  0  0  0  0  0
  1  2  1  0
  2  3  1  0
  3  4  2  0
  4  5  1  0
  5  6  1  0
  6  7  2  0
  6  8  1  0
  8  9  1  0
  9 10  1  0
 10 11  1  0
 11 12  1  0
 12 13  1  6
 13 14  1  0
 13 15  2  0
  4 16  1  0
 16 17  1  0
 17 18  1  0
 18 19  2  0
 19 20  1  0
 20 21  2  0
 21 22  1  0
 22 23  1  0
 23 24  1  0
 23 25  1  0
 23 26  1  0
 26 27  1  0
 26 28  1  0
 26 29  1  0
 22 30  2  0
 17  2  2  0
 30 18  1  0
 12  8  1  0
M  END
$$$$
