
     RDKit          3D

 14 15  0  0  0  0  0  0  0  0999 V2000
  -20.6582   33.7492  -22.3358 O   0  0  0  0  0  0  0  0  0  0  0  0
  -19.4816   34.2488  -22.5053 C   0  0  0  0  0  0  0  0  0  0  0  0
  -18.4994   33.3537  -22.8598 O   0  0  0  0  0  0  0  0  0  0  0  0
  -19.3030   35.6611  -22.3141 C   0  0  0  0  0  0  0  0  0  0  0  0
  -18.0648   36.1104  -21.8363 C   0  0  0  0  0  0  0  0  0  0  0  0
  -17.7814   37.4420  -21.6154 C   0  0  0  0  0  0  0  0  0  0  0  0
  -18.7357   38.3881  -21.8665 C   0  0  0  0  0  0  0  0  0  0  0  0
  -18.4783   39.7263  -21.6542 O   0  0  0  0  0  0  0  0  0  0  0  0
  -19.9641   37.9610  -22.3388 C   0  0  0  0  0  0  0  0  0  0  0  0
  -20.8802   38.9193  -22.5752 N   0  0  0  0  0  0  0  0  0  0  0  0
  -22.1004   38.6092  -23.0341 C   0  0  0  0  0  0  0  0  0  0  0  0
  -22.3974   37.2900  -23.2586 C   0  0  0  0  0  0  0  0  0  0  0  0
  -21.4959   36.2628  -23.0335 C   0  0  0  0  0  0  0  0  0  0  0  0
  -20.2471   36.5999  -22.5622 C   0  0  0  0  0  0  0  0  0  0  0  0
  1  2  2  0
  2  3  1  0
  2  4  1  0
  4  5  2  0
  5  6  1  0
  6  7  2  0
  7  8  1  0
  7  9  1  0
  9 10  2  0
 10 11  1  0
 11 12  2  0
 12 13  1  0
 13 14  2  0
 14  4  1  0
 14  9  1  0
M  END
$$$$
