
     RDKit          3D

 25 26  0  0  0  0  0  0  0  0999 V2000
  -30.7960   18.0076  -26.3240 C   0  0  0  0  0  0  0  0  0  0  0  0
  -29.3970   17.9677  -26.1574 O   0  0  0  0  0  0  0  0  0  0  0  0
  -28.7967   17.6172  -24.9634 C   0  0  0  0  0  0  0  0  0  0  0  0
  -29.3084   16.6325  -24.1687 C   0  0  0  0  0  0  0  0  0  0  0  0
  -28.7468   16.2388  -22.9583 C   0  0  0  0  0  0  0  0  0  0  0  0
  -29.3881   15.1815  -22.2211 C   0  0  0  0  0  0  0  0  0  0  0  0
  -30.1105   15.3464  -21.1215 C   0  0  0  0  0  0  0  0  0  0  0  0
  -30.9350   14.2841  -20.5838 C   0  0  0  0  0  0  0  0  0  0  0  0
  -31.4924   13.4777  -21.3447 O   0  0  0  0  0  0  0  0  0  0  0  0
  -31.1147   14.1596  -19.1244 C   0  0  0  0  0  0  0  0  0  0  0  0
  -30.7954   12.7988  -18.6298 C   0  0  0  0  0  0  0  0  0  0  0  0
  -29.5738   12.4056  -18.6484 O   0  0  0  0  0  0  0  0  0  0  0  0
  -31.7692   11.8510  -18.1131 C   0  0  0  0  0  0  0  0  0  0  0  0
  -31.5092   10.6254  -17.7162 C   0  0  0  0  0  0  0  0  0  0  0  0
  -32.4518    9.7290  -17.0697 C   0  0  0  0  0  0  0  0  0  0  0  0
  -32.1275    8.3880  -16.8922 C   0  0  0  0  0  0  0  0  0  0  0  0
  -33.0088    7.5313  -16.2856 C   0  0  0  0  0  0  0  0  0  0  0  0
  -34.2359    7.9659  -15.8345 C   0  0  0  0  0  0  0  0  0  0  0  0
  -35.1293    7.0917  -15.2178 O   0  0  0  0  0  0  0  0  0  0  0  0
  -34.5740    9.2716  -15.9975 C   0  0  0  0  0  0  0  0  0  0  0  0
  -33.6777   10.1270  -16.6110 C   0  0  0  0  0  0  0  0  0  0  0  0
  -27.6222   16.8816  -22.5549 C   0  0  0  0  0  0  0  0  0  0  0  0
  -27.0710   17.8903  -23.3374 C   0  0  0  0  0  0  0  0  0  0  0  0
  -27.6376   18.2693  -24.5340 C   0  0  0  0  0  0  0  0  0  0  0  0
  -27.1467   19.2542  -25.3542 O   0  0  0  0  0  0  0  0  0  0  0  0
  1  2  1  0
  2  3  1  0
  3  4  2  0
  4  5  1  0
  5  6  1  0
  6  7  2  0
  7  8  1  0
  8  9  2  0
  8 10  1  0
 10 11  1  0
 11 12  2  0
 11 13  1  0
 13 14  2  0
 14 15  1  0
 15 16  2  0
 16 17  1  0
 17 18  2  0
 18 19  1  0
 18 20  1  0
 20 21  2  0
  5 22  2  0
 22 23  1  0
 23 24  2  0
 24 25  1  0
 24  3  1  0
 21 15  1  0
M  END
$$$$
