
     RDKit          3D

 30 34  0  0  0  0  0  0  0  0999 V2000
  -24.0923   20.6202  -24.6911 O   0  0  0  0  0  0  0  0  0  0  0  0
  -24.5671   19.5154  -25.5913 S   0  0  0  0  0  6  0  0  0  0  0  0
  -23.3452   18.6662  -25.8956 O   0  0  0  0  0  0  0  0  0  0  0  0
  -25.1341   20.2192  -27.0639 C   0  0  0  0  0  0  0  0  0  0  0  0
  -26.3013   20.9561  -27.0714 C   0  0  0  0  0  0  0  0  0  0  0  0
  -26.7398   21.5161  -28.2760 C   0  0  0  0  0  0  0  0  0  0  0  0
  -26.0327   21.3468  -29.4472 C   0  0  0  0  0  0  0  0  0  0  0  0
  -24.8661   20.6108  -29.4417 C   0  0  0  0  0  0  0  0  0  0  0  0
  -24.4304   20.0528  -28.2383 C   0  0  0  0  0  0  0  0  0  0  0  0
  -25.7330   18.5963  -24.7647 N   0  0  0  0  0  0  0  0  0  0  0  0
  -25.8321   17.2363  -25.2535 C   0  0  0  0  0  0  0  0  0  0  0  0
  -26.8378   16.4378  -24.4311 C   0  0  0  0  0  0  0  0  0  0  0  0
  -26.6294   16.6249  -23.0301 N   0  0  0  0  0  0  0  0  0  0  0  0
  -26.4302   15.5118  -22.1850 C   0  0  0  0  0  0  0  0  0  0  0  0
  -25.6699   15.6436  -21.0455 N   0  0  0  0  0  0  0  0  0  0  0  0
  -25.4147   14.6404  -20.2069 C   0  0  0  0  0  0  0  0  0  0  0  0
  -24.5760   14.8686  -18.9896 C   0  0  0  0  0  0  0  0  0  0  0  0
  -24.1857   13.9572  -18.0726 C   0  0  0  0  0  0  0  0  0  0  0  0
  -23.4259   14.3751  -17.0451 C   0  0  0  0  0  0  0  0  0  0  0  0
  -23.0764   15.6688  -16.9531 C   0  0  0  0  0  0  0  0  0  0  0  0
  -23.8953   16.3638  -18.4562 S   0  0  0  0  0  0  0  0  0  0  0  0
  -25.9209   13.4311  -20.4772 N   0  0  0  0  0  0  0  0  0  0  0  0
  -26.6844   13.2487  -21.5986 C   0  0  0  0  0  0  0  0  0  0  0  0
  -27.2133   12.0035  -21.8780 C   0  0  0  0  0  0  0  0  0  0  0  0
  -27.9888   11.8062  -23.0003 C   0  0  0  0  0  0  0  0  0  0  0  0
  -28.2466   12.8522  -23.8597 C   0  0  0  0  0  0  0  0  0  0  0  0
  -27.7330   14.1036  -23.6073 C   0  0  0  0  0  0  0  0  0  0  0  0
  -26.9592   14.2779  -22.4790 C   0  0  0  0  0  0  0  0  0  0  0  0
  -26.6103   17.9942  -22.5541 C   0  0  0  0  0  0  0  0  0  0  0  0
  -25.4880   18.6792  -23.3518 C   0  0  0  0  0  0  0  0  0  0  0  0
  1  2  2  0
  2  3  2  0
  2  4  1  0
  4  5  2  0
  5  6  1  0
  6  7  2  0
  7  8  1  0
  8  9  2  0
  2 10  1  0
 10 11  1  0
 11 12  1  0
 12 13  1  0
 13 14  1  0
 14 15  2  0
 15 16  1  0
 16 17  1  0
 17 18  2  0
 18 19  1  0
 19 20  2  0
 20 21  1  0
 16 22  2  0
 22 23  1  0
 23 24  2  0
 24 25  1  0
 25 26  2  0
 26 27  1  0
 27 28  2  0
 13 29  1  0
 29 30  1  0
  9  4  1  0
 30 10  1  0
 28 14  1  0
 21 17  1  0
 28 23  1  0
M  END
$$$$
