
     RDKit          3D

 34 38  0  0  0  0  0  0  0  0999 V2000
  -22.8868   35.2280  -25.0726 C   0  0  0  0  0  0  0  0  0  0  0  0
  -21.5258   35.8290  -24.7959 C   0  0  0  0  0  0  0  0  0  0  0  0
  -20.7831   35.9510  -26.0968 C   0  0  0  0  0  0  0  0  0  0  0  0
  -20.8295   34.9339  -23.8050 C   0  0  0  0  0  0  0  0  0  0  0  0
  -21.1309   35.2510  -22.3654 C   0  0  0  0  0  0  0  0  0  0  0  0
  -20.4925   36.5746  -22.0329 C   0  0  1  0  0  0  0  0  0  0  0  0
  -19.0793   36.2363  -21.6928 C   0  0  0  0  0  0  0  0  0  0  0  0
  -18.7532   35.9917  -20.4821 O   0  0  0  0  0  0  0  0  0  0  0  0
  -18.0414   36.1582  -22.5953 O   0  0  0  0  0  0  0  0  0  0  0  0
  -20.5264   37.4224  -23.2787 C   0  0  1  0  0  0  0  0  0  0  0  0
  -21.6583   37.2362  -24.1904 C   0  0  0  0  0  0  0  0  0  0  0  0
  -20.2003   38.7931  -22.8310 C   0  0  0  0  0  0  0  0  0  0  0  0
  -19.1254   39.3246  -23.3408 C   0  0  0  0  0  0  0  0  0  0  0  0
  -18.5962   40.6801  -23.0460 C   0  0  0  0  0  0  0  0  0  0  0  0
  -19.8416   41.5101  -22.7448 C   0  0  2  0  0  0  0  0  0  0  0  0
  -19.5014   42.9851  -22.7508 C   0  0  1  0  0  0  0  0  0  0  0  0
  -18.5315   43.4167  -21.7278 C   0  0  0  0  0  0  0  0  0  0  0  0
  -18.8187   43.2271  -24.1086 C   0  0  0  0  0  0  0  0  0  0  0  0
  -18.8602   44.6685  -24.5326 C   0  0  0  0  0  0  0  0  0  0  0  0
  -20.1699   45.3462  -24.4021 C   0  0  2  0  0  0  0  0  0  0  0  0
  -19.9726   46.7169  -24.5696 O   0  0  0  0  0  0  0  0  0  0  0  0
  -20.8235   45.1326  -23.0638 C   0  0  0  0  0  0  0  0  0  0  0  0
  -20.2733   46.0439  -22.0037 C   0  0  0  0  0  0  0  0  0  0  0  0
  -22.2951   45.5393  -23.2579 C   0  0  0  0  0  0  0  0  0  0  0  0
  -20.8082   43.7003  -22.7466 C   0  0  2  0  0  0  0  0  0  0  0  0
  -21.4732   43.3391  -21.4393 C   0  0  0  0  0  0  0  0  0  0  0  0
  -21.8624   41.8646  -21.4554 C   0  0  0  0  0  0  0  0  0  0  0  0
  -20.6193   40.9703  -21.6146 C   0  0  2  0  0  0  0  0  0  0  0  0
  -19.9485   41.0662  -20.2659 C   0  0  0  0  0  0  0  0  0  0  0  0
  -21.0001   39.5461  -21.8626 C   0  0  1  0  0  0  0  0  0  0  0  0
  -22.4938   39.5298  -22.1532 C   0  0  0  0  0  0  0  0  0  0  0  0
  -20.9502   38.6641  -20.6039 C   0  0  0  0  0  0  0  0  0  0  0  0
  -21.0641   37.2232  -20.8187 C   0  0  1  0  0  0  0  0  0  0  0  0
  -22.3742   36.7614  -20.6717 O   0  0  0  0  0  0  0  0  0  0  0  0
  1  2  1  0
  2  3  1  0
  2  4  1  0
  4  5  1  0
  5  6  1  0
  6  7  1  1
  7  8  2  0
  7  9  1  0
  6 10  1  0
 10 11  1  1
 10 12  1  0
 12 13  2  0
 13 14  1  0
 15 14  1  1
 15 16  1  0
 16 17  1  1
 16 18  1  0
 18 19  1  0
 19 20  1  0
 20 21  1  1
 20 22  1  0
 22 23  1  0
 22 24  1  0
 22 25  1  0
 25 26  1  1
 26 27  1  0
 27 28  1  0
 28 29  1  1
 28 30  1  0
 30 31  1  6
 30 32  1  0
 32 33  1  0
 33 34  1  6
 11  2  1  0
 30 12  1  0
 33  6  1  0
 28 15  1  0
 25 16  1  0
M  END
$$$$
