
     RDKit          3D

 15 16  0  0  0  0  0  0  0  0999 V2000
  -18.4071   41.4816  -21.8845 N   0  0  0  0  0  0  0  0  0  0  0  0
  -18.6358   40.0780  -21.8466 C   0  0  0  0  0  0  0  0  0  0  0  0
  -19.9245   39.5918  -21.8546 C   0  0  0  0  0  0  0  0  0  0  0  0
  -20.1440   38.2322  -21.8179 C   0  0  0  0  0  0  0  0  0  0  0  0
  -19.1009   37.3984  -21.7747 N   0  0  0  0  0  0  0  0  0  0  0  0
  -19.2155   35.9625  -21.7338 C   0  0  1  0  0  0  0  0  0  0  0  0
  -20.6691   35.5826  -21.5256 C   0  0  0  0  0  0  0  0  0  0  0  0
  -20.5297   34.0804  -21.8116 C   0  0  0  0  0  0  0  0  0  0  0  0
  -19.6120   34.1716  -23.0149 C   0  0  1  0  0  0  0  0  0  0  0  0
  -20.5310   34.2068  -24.2406 C   0  0  0  0  0  0  0  0  0  0  0  0
  -19.7939   33.7353  -25.3308 O   0  0  0  0  0  0  0  0  0  0  0  0
  -18.9103   35.3459  -22.9154 O   0  0  0  0  0  0  0  0  0  0  0  0
  -17.8551   37.9170  -21.7684 C   0  0  0  0  0  0  0  0  0  0  0  0
  -16.8413   37.1498  -21.7278 O   0  0  0  0  0  0  0  0  0  0  0  0
  -17.6060   39.2269  -21.8032 N   0  0  0  0  0  0  0  0  0  0  0  0
  1  2  1  0
  2  3  1  0
  3  4  2  0
  4  5  1  0
  6  5  1  6
  6  7  1  0
  7  8  1  0
  8  9  1  0
  9 10  1  6
 10 11  1  0
  9 12  1  0
  5 13  1  0
 13 14  2  0
 13 15  1  0
 15  2  2  0
 12  6  1  0
M  END
$$$$
