
     RDKit          3D

 35 39  0  0  0  0  0  0  0  0999 V2000
  -20.2062   41.5859  -23.8150 Cl  0  0  0  0  0  0  0  0  0  0  0  0
  -16.9220   38.8393  -21.4604 O   0  0  0  0  0  0  0  0  0  0  0  0
  -18.1168   38.7495  -21.1118 C   0  0  0  0  0  0  0  0  0  0  0  0
  -18.7455   39.8939  -20.5609 N   0  0  0  0  0  0  0  0  0  0  0  0
  -18.0832   41.1362  -20.3862 C   0  0  0  0  0  0  0  0  0  0  0  0
  -17.3920   41.4944  -19.2487 C   0  0  0  0  0  0  0  0  0  0  0  0
  -16.7660   42.7084  -19.1249 C   0  0  0  0  0  0  0  0  0  0  0  0
  -16.8174   43.6166  -20.1617 C   0  0  0  0  0  0  0  0  0  0  0  0
  -17.5086   43.2695  -21.3103 C   0  0  0  0  0  0  0  0  0  0  0  0
  -18.1325   42.0448  -21.4187 C   0  0  0  0  0  0  0  0  0  0  0  0
  -18.8538   41.6982  -22.6321 C   0  0  0  0  0  0  0  0  0  0  0  0
  -18.9963   42.4879  -23.7472 C   0  0  0  0  0  0  0  0  0  0  0  0
  -19.7585   41.8114  -24.7132 N   0  0  0  0  0  0  0  0  0  0  0  0
  -20.1788   42.0926  -25.9122 C   0  0  0  0  0  0  0  0  0  0  0  0
  -19.8997   43.4078  -26.6692 C   0  0  0  0  0  0  0  0  0  0  0  0
  -20.9117   44.3789  -26.3976 N   0  0  0  0  0  0  0  0  0  0  0  0
  -20.6537   45.6197  -27.1017 C   0  0  0  0  0  0  0  0  0  0  0  0
  -21.6485   46.6667  -26.7235 C   0  0  0  0  0  0  0  0  0  0  0  0
  -22.9556   46.1796  -27.1949 N   0  0  0  0  0  0  0  0  0  0  0  0
  -23.2528   45.0170  -26.4104 C   0  0  0  0  0  0  0  0  0  0  0  0
  -22.2362   43.9339  -26.7459 C   0  0  0  0  0  0  0  0  0  0  0  0
  -20.9435   41.1672  -26.6284 C   0  0  0  0  0  0  0  0  0  0  0  0
  -21.0146   39.7966  -25.3855 S   0  0  0  0  0  0  0  0  0  0  0  0
  -20.0348   40.6458  -24.1246 C   0  0  0  0  0  0  0  0  0  0  0  0
  -19.5187   40.5431  -22.8986 N   0  0  0  0  0  0  0  0  0  0  0  0
  -18.8169   37.4763  -21.2840 C   0  0  0  0  0  0  0  0  0  0  0  0
  -18.1689   36.3860  -21.8238 C   0  0  0  0  0  0  0  0  0  0  0  0
  -18.8083   35.2014  -21.9874 N   0  0  0  0  0  0  0  0  0  0  0  0
  -20.0959   35.0459  -21.6299 C   0  0  0  0  0  0  0  0  0  0  0  0
  -20.7589   33.8388  -21.7931 C   0  0  0  0  0  0  0  0  0  0  0  0
  -22.0919   33.6807  -21.4224 C   0  0  0  0  0  0  0  0  0  0  0  0
  -22.7459   34.7637  -20.8829 C   0  0  0  0  0  0  0  0  0  0  0  0
  -22.0697   35.9636  -20.7259 C   0  0  0  0  0  0  0  0  0  0  0  0
  -20.7494   36.1339  -21.0889 C   0  0  0  0  0  0  0  0  0  0  0  0
  -20.1039   37.3124  -20.9292 N   0  0  0  0  0  0  0  0  0  0  0  0
  2  3  2  0
  3  4  1  0
  4  5  1  0
  5  6  2  0
  6  7  1  0
  7  8  2  0
  8  9  1  0
  9 10  2  0
 10 11  1  0
 11 12  2  0
 12 13  1  0
 13 14  1  0
 14 15  1  0
 15 16  1  0
 16 17  1  0
 17 18  1  0
 18 19  1  0
 19 20  1  0
 20 21  1  0
 14 22  2  0
 22 23  1  0
 23 24  1  0
 24 25  2  0
  3 26  1  0
 26 27  2  0
 27 28  1  0
 28 29  2  0
 29 30  1  0
 30 31  2  0
 31 32  1  0
 32 33  2  0
 33 34  1  0
 34 35  2  0
 10  5  1  0
 25 11  1  0
 35 26  1  0
 24 13  1  0
 34 29  1  0
 21 16  1  0
M  END
$$$$
