
     RDKit          3D

 35 37  0  0  0  0  0  0  0  0999 V2000
  -27.5930   21.1308  -28.5325 O   0  0  0  0  0  0  0  0  0  0  0  0
  -26.9702   21.2955  -29.5974 N   0  0  0  0  0  4  0  0  0  0  0  0
  -27.6381   21.8574  -30.6364 O   0  0  0  0  0  1  0  0  0  0  0  0
  -25.5987   20.8911  -29.6784 C   0  0  0  0  0  0  0  0  0  0  0  0
  -24.9162   20.9379  -30.8726 C   0  0  0  0  0  0  0  0  0  0  0  0
  -23.5935   20.5557  -30.9867 C   0  0  0  0  0  0  0  0  0  0  0  0
  -22.9171   20.1080  -29.8714 C   0  0  0  0  0  0  0  0  0  0  0  0
  -21.5027   19.7154  -30.0677 C   0  0  0  0  0  0  0  0  0  0  0  0
  -21.3051   18.4951  -30.7485 N   0  0  0  0  0  0  0  0  0  0  0  0
  -21.4432   18.5522  -32.1680 C   0  0  0  0  0  0  0  0  0  0  0  0
  -20.2816   19.2621  -32.8424 C   0  0  0  0  0  0  0  0  0  0  0  0
  -19.0996   18.5770  -32.7579 O   0  0  0  0  0  0  0  0  0  0  0  0
  -18.1988   19.1861  -31.8652 C   0  0  0  0  0  0  0  0  0  0  0  0
  -16.8213   18.5364  -32.0412 C   0  0  0  0  0  0  0  0  0  0  0  0
  -17.0271   17.2841  -32.5655 O   0  0  0  0  0  0  0  0  0  0  0  0
  -16.0104   16.3818  -32.3026 C   0  0  0  0  0  0  0  0  0  0  0  0
  -16.2766   15.4911  -31.1419 C   0  0  0  0  0  0  0  0  0  0  0  0
  -17.6479   15.1783  -30.9267 N   0  0  0  0  0  0  0  0  0  0  0  0
  -17.8463   14.3701  -29.7512 C   0  0  0  0  0  0  0  0  0  0  0  0
  -16.6027   13.9306  -29.0985 C   0  0  0  0  0  0  0  0  0  0  0  0
  -15.8766   12.8237  -29.4815 C   0  0  0  0  0  0  0  0  0  0  0  0
  -14.7066   12.4508  -28.8395 C   0  0  0  0  0  0  0  0  0  0  0  0
  -14.2265   13.1895  -27.7799 C   0  0  0  0  0  0  0  0  0  0  0  0
  -13.0240   12.8190  -27.1081 N   0  0  0  0  0  4  0  0  0  0  0  0
  -12.8244   13.2084  -25.9564 O   0  0  0  0  0  0  0  0  0  0  0  0
  -12.0894   12.0343  -27.7316 O   0  0  0  0  0  1  0  0  0  0  0  0
  -14.9655   14.2911  -27.4120 C   0  0  0  0  0  0  0  0  0  0  0  0
  -16.1233   14.6859  -28.0245 C   0  0  0  0  0  0  0  0  0  0  0  0
  -18.3514   14.6288  -32.0319 C   0  0  0  0  0  0  0  0  0  0  0  0
  -19.8535   14.7901  -31.7609 C   0  0  0  0  0  0  0  0  0  0  0  0
  -20.1676   16.0497  -31.3164 O   0  0  0  0  0  0  0  0  0  0  0  0
  -20.9426   16.1179  -30.1946 C   0  0  0  0  0  0  0  0  0  0  0  0
  -21.8395   17.3327  -30.1273 C   0  0  0  0  0  0  0  0  0  0  0  0
  -23.5720   20.0545  -28.6860 C   0  0  0  0  0  0  0  0  0  0  0  0
  -24.8888   20.4386  -28.5892 C   0  0  0  0  0  0  0  0  0  0  0  0
  1  2  2  0
  2  3  1  0
  2  4  1  0
  4  5  2  0
  5  6  1  0
  6  7  2  0
  7  8  1  0
  8  9  1  0
  9 10  1  0
 10 11  1  0
 11 12  1  0
 12 13  1  0
 13 14  1  0
 14 15  1  0
 15 16  1  0
 16 17  1  0
 17 18  1  0
 18 19  1  0
 19 20  1  0
 20 21  2  0
 21 22  1  0
 22 23  2  0
 23 24  1  0
 24 25  2  0
 24 26  1  0
 23 27  1  0
 27 28  2  0
 18 29  1  0
 29 30  1  0
 30 31  1  0
 31 32  1  0
 32 33  1  0
  7 34  1  0
 34 35  2  0
 35  4  1  0
 33  9  1  0
 28 20  1  0
M  CHG  4   2   1   3  -1  24   1  26  -1
M  END
$$$$
