
     RDKit          3D

 21 23  0  0  0  0  0  0  0  0999 V2000
  -20.1796   20.4298  -29.2533 O   0  0  0  0  0  0  0  0  0  0  0  0
  -21.4209   20.4629  -29.4372 C   0  0  0  0  0  0  0  0  0  0  0  0
  -21.9062   19.8600  -30.6360 N   0  0  0  0  0  0  0  0  0  0  0  0
  -21.4489   18.5397  -31.0255 C   0  0  0  0  0  0  0  0  0  0  0  0
  -20.0729   17.9412  -30.4129 S   0  0  0  0  0  0  0  0  0  0  0  0
  -22.2395   17.7667  -31.9025 N   0  0  0  0  0  0  0  0  0  0  0  0
  -21.8863   16.3739  -32.2487 C   0  0  0  0  0  0  0  0  0  0  0  0
  -22.4112   15.9437  -33.5744 C   0  0  0  0  0  0  0  0  0  0  0  0
  -22.8049   17.0764  -34.5041 C   0  0  0  0  0  0  0  0  0  0  0  0
  -23.7588   17.9767  -33.8071 C   0  0  0  0  0  0  0  0  0  0  0  0
  -24.8762   18.4393  -34.4433 C   0  0  0  0  0  0  0  0  0  0  0  0
  -25.7042   19.2621  -33.6683 C   0  0  0  0  0  0  0  0  0  0  0  0
  -25.4063   19.5775  -32.3580 C   0  0  0  0  0  0  0  0  0  0  0  0
  -24.2563   19.0813  -31.7549 C   0  0  0  0  0  0  0  0  0  0  0  0
  -23.4304   18.2795  -32.4832 C   0  0  0  0  0  0  0  0  0  0  0  0
  -22.2621   21.0965  -28.4433 C   0  0  0  0  0  0  0  0  0  0  0  0
  -22.8377   22.3113  -28.7237 C   0  0  0  0  0  0  0  0  0  0  0  0
  -23.6588   22.9663  -27.7982 C   0  0  0  0  0  0  0  0  0  0  0  0
  -23.8944   22.3797  -26.5804 C   0  0  0  0  0  0  0  0  0  0  0  0
  -23.3204   21.1560  -26.2856 C   0  0  0  0  0  0  0  0  0  0  0  0
  -22.5048   20.5172  -27.2194 C   0  0  0  0  0  0  0  0  0  0  0  0
  1  2  2  0
  2  3  1  0
  3  4  1  0
  4  5  2  0
  4  6  1  0
  6  7  1  0
  7  8  1  0
  8  9  1  0
  9 10  1  0
 10 11  2  0
 11 12  1  0
 12 13  2  0
 13 14  1  0
 14 15  2  0
  2 16  1  0
 16 17  2  0
 17 18  1  0
 18 19  2  0
 19 20  1  0
 20 21  2  0
 15  6  1  0
 21 16  1  0
 15 10  1  0
M  END
$$$$
