
     RDKit          3D

  7  7  0  0  0  0  0  0  0  0999 V2000
  -16.8063   36.2296  -21.7592 O   0  0  0  0  0  0  0  0  0  0  0  0
  -17.6731   37.3022  -21.5924 C   0  0  0  0  0  0  0  0  0  0  0  0
  -19.1000   36.8508  -21.5553 C   0  0  0  0  0  0  0  0  0  0  0  0
  -19.5697   35.5440  -21.6440 C   0  0  0  0  0  0  0  0  0  0  0  0
  -20.9083   35.6161  -21.5659 N   0  0  0  0  0  0  0  0  0  0  0  0
  -21.3128   36.8883  -21.4335 C   0  0  0  0  0  0  0  0  0  0  0  0
  -20.1895   37.6289  -21.4292 N   0  0  0  0  0  0  0  0  0  0  0  0
  1  2  1  0
  2  3  1  0
  3  4  2  0
  4  5  1  0
  5  6  1  0
  6  7  2  0
  7  3  1  0
M  END
$$$$
