
     RDKit          3D

 34 34  0  0  0  0  0  0  0  0999 V2000
  -20.2698    0.7855  -27.9271 C   0  0  0  0  0  0  0  0  0  0  0  0
  -21.4041    1.1778  -28.3812 O   0  0  0  0  0  0  0  0  0  0  0  0
  -22.5248    1.5353  -28.8831 C   0  0  0  0  0  0  0  0  0  0  0  0
  -23.1105    1.1737  -30.1375 C   0  0  0  0  0  0  0  0  0  0  0  0
  -24.3467    1.6265  -30.6443 C   0  0  0  0  0  0  0  0  0  0  0  0
  -25.0042    2.5152  -29.7936 C   0  0  0  0  0  0  0  0  0  0  0  0
  -26.3059    3.2003  -30.1057 C   0  0  0  0  0  0  0  0  0  0  0  0
  -27.3457    2.3357  -29.4201 C   0  0  0  0  0  0  0  0  0  0  0  0
  -28.5987    3.2121  -29.3428 N   0  0  0  0  0  0  0  0  0  0  0  0
  -29.6206    2.2239  -28.9784 C   0  0  0  0  0  0  0  0  0  0  0  0
  -28.2690    3.9608  -28.1211 C   0  0  0  0  0  0  0  0  0  0  0  0
  -29.0940    5.1892  -27.9026 C   0  0  0  0  0  0  0  0  0  0  0  0
  -28.6231    5.8354  -26.5791 C   0  0  0  0  0  0  0  0  0  0  0  0
  -29.3473    7.1804  -26.4221 C   0  0  0  0  0  0  0  0  0  0  0  0
  -28.8952    7.8636  -27.6733 C   0  0  0  0  0  0  0  0  0  0  0  0
  -28.5355    8.4166  -28.6576 N   0  0  0  0  0  0  0  0  0  0  0  0
  -28.8354    7.9079  -25.2337 C   0  0  0  0  0  0  0  0  0  0  0  0
  -27.7479    7.5039  -24.5354 C   0  0  0  0  0  0  0  0  0  0  0  0
  -27.3853    8.0908  -23.3244 C   0  0  0  0  0  0  0  0  0  0  0  0
  -28.1431    9.1118  -22.7941 C   0  0  0  0  0  0  0  0  0  0  0  0
  -28.0051    9.7439  -21.6659 O   0  0  0  0  0  0  0  0  0  0  0  0
  -27.6155   10.1332  -20.5043 C   0  0  0  0  0  0  0  0  0  0  0  0
  -29.2785    9.5591  -23.5271 C   0  0  0  0  0  0  0  0  0  0  0  0
  -30.0522   10.5934  -23.0886 O   0  0  0  0  0  0  0  0  0  0  0  0
  -31.1257   11.0505  -23.9113 C   0  0  0  0  0  0  0  0  0  0  0  0
  -29.5790    8.9242  -24.7391 C   0  0  0  0  0  0  0  0  0  0  0  0
  -30.8056    7.0483  -26.3600 C   0  0  0  0  0  0  0  0  0  0  0  0
  -31.2311    6.0903  -25.2449 C   0  0  0  0  0  0  0  0  0  0  0  0
  -31.5718    6.7582  -27.6101 C   0  0  0  0  0  0  0  0  0  0  0  0
  -24.4904    2.8600  -28.6181 C   0  0  0  0  0  0  0  0  0  0  0  0
  -23.3277    2.4227  -28.1398 C   0  0  0  0  0  0  0  0  0  0  0  0
  -22.8860    2.8369  -26.8142 O   0  0  0  0  0  0  0  0  0  0  0  0
  -23.8729    3.5112  -26.0487 C   0  0  0  0  0  0  0  0  0  0  0  0
  -27.7531    5.8723  -26.2605 Cl  0  0  0  0  0  0  0  0  0  0  0  0
  1  2  1  0
  2  3  1  0
  3  4  2  0
  4  5  1  0
  5  6  2  0
  6  7  1  0
  7  8  1  0
  8  9  1  0
  9 10  1  0
  9 11  1  0
 11 12  1  0
 12 13  1  0
 13 14  1  0
 14 15  1  0
 15 16  3  0
 14 17  1  0
 17 18  2  0
 18 19  1  0
 19 20  2  0
 20 21  1  0
 21 22  1  0
 20 23  1  0
 23 24  1  0
 24 25  1  0
 23 26  2  0
 14 27  1  0
 27 28  1  0
 27 29  1  0
  6 30  1  0
 30 31  2  0
 31 32  1  0
 32 33  1  0
 31  3  1  0
 26 17  1  0
M  END
$$$$
