
     RDKit          3D

 15 16  0  0  0  0  0  0  0  0999 V2000
  -43.3623    7.3096  -34.0786 S   0  0  0  0  0  0  0  0  0  0  0  0
  -43.1905    8.0070  -35.5275 C   0  0  0  0  0  0  0  0  0  0  0  0
  -43.1311    9.3972  -35.6669 N   0  0  0  0  0  0  0  0  0  0  0  0
  -43.3557   10.3089  -34.6317 C   0  0  0  0  0  0  0  0  0  0  0  0
  -42.3789   10.3149  -33.6178 C   0  0  0  0  0  0  0  0  0  0  0  0
  -42.5446   11.1492  -32.5458 C   0  0  0  0  0  0  0  0  0  0  0  0
  -43.6560   11.9853  -32.4440 C   0  0  0  0  0  0  0  0  0  0  0  0
  -44.6034   11.9699  -33.4402 C   0  0  0  0  0  0  0  0  0  0  0  0
  -44.4497   11.1194  -34.5480 C   0  0  0  0  0  0  0  0  0  0  0  0
  -43.1522    7.1373  -36.6703 N   0  0  0  0  0  0  0  0  0  0  0  0
  -42.9510    5.7480  -36.6429 C   0  0  0  0  0  0  0  0  0  0  0  0
  -42.6853    4.7869  -37.2546 N   0  0  0  0  0  0  0  0  0  0  0  0
  -42.5886    3.5417  -36.8733 C   0  0  0  0  0  0  0  0  0  0  0  0
  -42.8221    3.2661  -35.5871 C   0  0  0  0  0  0  0  0  0  0  0  0
  -43.1983    4.9499  -34.9392 S   0  0  0  0  0  0  0  0  0  0  0  0
  1  2  2  0
  2  3  1  0
  3  4  1  0
  4  5  2  0
  5  6  1  0
  6  7  2  0
  7  8  1  0
  8  9  2  0
  2 10  1  0
 10 11  1  0
 11 12  2  0
 12 13  1  0
 13 14  2  0
 14 15  1  0
  9  4  1  0
 15 11  1  0
M  END
$$$$
