
     RDKit          3D

 18 19  0  0  0  0  0  0  0  0999 V2000
  -24.2434   18.3674  -26.9301 O   0  0  0  0  0  0  0  0  0  0  0  0
  -24.3925   18.7616  -25.7565 C   0  0  0  0  0  0  0  0  0  0  0  0
  -24.5313   17.7465  -24.6873 C   0  0  0  0  0  0  0  0  0  0  0  0
  -25.9400   17.3942  -24.4233 C   0  0  0  0  0  0  0  0  0  0  0  0
  -26.8184   18.2703  -24.5676 O   0  0  0  0  0  0  0  0  0  0  0  0
  -26.2609   16.0421  -24.0047 C   0  0  0  0  0  0  0  0  0  0  0  0
  -27.5244   15.7036  -23.5695 C   0  0  0  0  0  0  0  0  0  0  0  0
  -27.8369   14.4213  -23.1702 C   0  0  0  0  0  0  0  0  0  0  0  0
  -26.8892   13.4290  -23.1934 C   0  0  0  0  0  0  0  0  0  0  0  0
  -25.6216   13.7272  -23.6198 C   0  0  0  0  0  0  0  0  0  0  0  0
  -25.3310   15.0228  -24.0162 C   0  0  0  0  0  0  0  0  0  0  0  0
  -24.4339   20.1314  -25.4089 N   0  0  0  0  0  0  0  0  0  0  0  0
  -24.1880   21.1863  -26.2940 C   0  0  0  0  0  0  0  0  0  0  0  0
  -24.4780   20.9960  -27.6409 C   0  0  0  0  0  0  0  0  0  0  0  0
  -24.2732   21.9640  -28.5805 C   0  0  0  0  0  0  0  0  0  0  0  0
  -23.7626   23.1732  -28.1920 C   0  0  0  0  0  0  0  0  0  0  0  0
  -23.4822   23.3603  -26.8969 N   0  0  0  0  0  0  0  0  0  0  0  0
  -23.6823   22.3987  -25.9426 C   0  0  0  0  0  0  0  0  0  0  0  0
  1  2  2  0
  2  3  1  0
  3  4  1  0
  4  5  2  0
  4  6  1  0
  6  7  2  0
  7  8  1  0
  8  9  2  0
  9 10  1  0
 10 11  2  0
  2 12  1  0
 12 13  1  0
 13 14  2  0
 14 15  1  0
 15 16  2  0
 16 17  1  0
 17 18  2  0
 11  6  1  0
 18 13  1  0
M  END
$$$$
