
     RDKit          3D

 10 11  0  0  0  0  0  0  0  0999 V2000
  -21.4789   38.3874  -20.4992 N   0  0  0  0  0  0  0  0  0  0  0  0
  -20.1409   38.2330  -20.8598 N   0  0  0  0  0  0  0  0  0  0  0  0
  -19.1069   38.9921  -20.5823 N   0  0  0  0  0  0  0  0  0  0  0  0
  -18.0000   38.4997  -21.1113 N   0  0  0  0  0  0  0  0  0  0  0  0
  -18.3110   37.3618  -21.7705 C   0  0  0  0  0  0  0  0  0  0  0  0
  -17.5448   36.4714  -22.4845 C   0  0  0  0  0  0  0  0  0  0  0  0
  -18.1622   35.3811  -23.0534 C   0  0  0  0  0  0  0  0  0  0  0  0
  -19.5454   35.2188  -22.8845 C   0  0  0  0  0  0  0  0  0  0  0  0
  -20.2861   36.1095  -22.1753 C   0  0  0  0  0  0  0  0  0  0  0  0
  -19.6762   37.2029  -21.6030 C   0  0  0  0  0  0  0  0  0  0  0  0
  1  2  1  0
  2  3  1  0
  3  4  2  0
  4  5  1  0
  5  6  2  0
  6  7  1  0
  7  8  2  0
  8  9  1  0
  9 10  2  0
 10  2  1  0
 10  5  1  0
M  END
$$$$
