
     RDKit          3D

 18 19  0  0  0  0  0  0  0  0999 V2000
  -19.1282   43.8940  -22.9805 N   0  0  0  0  0  0  0  0  0  0  0  0
  -19.3229   43.1478  -21.4404 S   0  0  0  0  0  6  0  0  0  0  0  0
  -20.5737   43.5783  -20.7530 O   0  0  0  0  0  0  0  0  0  0  0  0
  -18.1364   43.4709  -20.5936 O   0  0  0  0  0  0  0  0  0  0  0  0
  -19.3100   41.4040  -21.7075 C   0  0  0  0  0  0  0  0  0  0  0  0
  -20.1008   40.5750  -20.9460 C   0  0  0  0  0  0  0  0  0  0  0  0
  -20.0910   39.2114  -21.1544 C   0  0  0  0  0  0  0  0  0  0  0  0
  -19.3024   38.6251  -22.1186 C   0  0  0  0  0  0  0  0  0  0  0  0
  -19.3405   37.2282  -22.2785 N   0  0  0  0  0  0  0  0  0  0  0  0
  -20.3210   36.5144  -23.0754 C   0  0  0  0  0  0  0  0  0  0  0  0
  -19.6162   35.3262  -23.6796 C   0  0  0  0  0  0  0  0  0  0  0  0
  -19.3571   34.2154  -22.7293 C   0  0  0  0  0  0  0  0  0  0  0  0
  -18.9173   34.6173  -21.3661 C   0  0  0  0  0  0  0  0  0  0  0  0
  -18.1552   36.2408  -21.4895 S   0  0  0  0  0  6  0  0  0  0  0  0
  -16.9883   36.1083  -22.4244 O   0  0  0  0  0  0  0  0  0  0  0  0
  -17.7756   36.7680  -20.1549 O   0  0  0  0  0  0  0  0  0  0  0  0
  -18.5167   39.4559  -22.8742 C   0  0  0  0  0  0  0  0  0  0  0  0
  -18.5140   40.8391  -22.6768 C   0  0  0  0  0  0  0  0  0  0  0  0
  1  2  1  0
  2  3  2  0
  2  4  2  0
  2  5  1  0
  5  6  2  0
  6  7  1  0
  7  8  2  0
  8  9  1  0
  9 10  1  0
 10 11  1  0
 11 12  1  0
 12 13  1  0
 13 14  1  0
 14 15  2  0
 14 16  2  0
  8 17  1  0
 17 18  2  0
 18  5  1  0
 14  9  1  0
M  END
$$$$
