
     RDKit          3D

 30 32  0  0  0  0  0  0  0  0999 V2000
  -28.9245    9.8713  -17.0297 C   0  0  0  0  0  0  0  0  0  0  0  0
  -29.3818   10.7908  -17.9879 O   0  0  0  0  0  0  0  0  0  0  0  0
  -30.7448   10.9878  -18.1282 C   0  0  0  0  0  0  0  0  0  0  0  0
  -31.6043   10.5863  -17.1293 C   0  0  0  0  0  0  0  0  0  0  0  0
  -32.9476   10.7719  -17.2498 C   0  0  0  0  0  0  0  0  0  0  0  0
  -33.4112   11.3713  -18.3962 C   0  0  0  0  0  0  0  0  0  0  0  0
  -34.7223   11.5916  -18.5945 F   0  0  0  0  0  0  0  0  0  0  0  0
  -32.5426   11.7812  -19.4117 C   0  0  0  0  0  0  0  0  0  0  0  0
  -33.0418   12.4241  -20.5023 F   0  0  0  0  0  0  0  0  0  0  0  0
  -31.1873   11.5997  -19.3071 C   0  0  0  0  0  0  0  0  0  0  0  0
  -30.1924   12.0243  -20.2503 C   0  0  0  0  0  0  0  0  0  0  0  0
  -29.4753   11.0914  -20.7746 O   0  0  0  0  0  0  0  0  0  0  0  0
  -29.9213   13.3783  -20.6638 C   0  0  0  0  0  0  0  0  0  0  0  0
  -30.6680   14.4408  -20.2358 C   0  0  0  0  0  0  0  0  0  0  0  0
  -30.4150   15.6873  -20.6964 N   0  0  0  0  0  0  0  0  0  0  0  0
  -29.4321   15.9216  -21.5828 C   0  0  0  0  0  0  0  0  0  0  0  0
  -29.2301   17.2496  -22.0159 N   0  0  0  0  0  0  0  0  0  0  0  0
  -28.2497   17.5073  -23.0381 C   0  0  0  0  0  0  0  0  0  0  0  0
  -28.7438   17.0391  -24.3493 C   0  0  0  0  0  0  0  0  0  0  0  0
  -28.5853   18.0033  -25.4826 C   0  0  0  0  0  0  0  0  0  0  0  0
  -28.8502   19.3529  -25.1968 N   0  0  0  0  0  0  0  0  0  0  0  0
  -27.9076   20.4718  -26.0967 S   0  0  0  0  0  6  0  0  0  0  0  0
  -27.4285   21.7792  -24.9601 C   0  0  0  0  0  0  0  0  0  0  0  0
  -28.6365   21.0480  -27.2556 O   0  0  0  0  0  0  0  0  0  0  0  0
  -26.6295   19.8299  -26.5551 O   0  0  0  0  0  0  0  0  0  0  0  0
  -28.9634   19.6909  -23.8043 C   0  0  0  0  0  0  0  0  0  0  0  0
  -27.8471   18.9711  -23.0771 C   0  0  0  0  0  0  0  0  0  0  0  0
  -28.6761   14.8920  -22.0274 N   0  0  0  0  0  0  0  0  0  0  0  0
  -28.8979   13.6440  -21.5920 C   0  0  0  0  0  0  0  0  0  0  0  0
  -28.1404   12.5255  -22.0200 N   0  0  0  0  0  0  0  0  0  0  0  0
  1  2  1  0
  2  3  1  0
  3  4  2  0
  4  5  1  0
  5  6  2  0
  6  7  1  0
  6  8  1  0
  8  9  1  0
  8 10  2  0
 10 11  1  0
 11 12  2  0
 11 13  1  0
 13 14  2  0
 14 15  1  0
 15 16  2  0
 16 17  1  0
 17 18  1  0
 18 19  1  0
 19 20  1  0
 20 21  1  0
 21 22  1  0
 22 23  1  0
 22 24  2  0
 22 25  2  0
 21 26  1  0
 26 27  1  0
 16 28  1  0
 28 29  2  0
 29 30  1  0
 10  3  1  0
 29 13  1  0
 27 18  1  0
M  END
$$$$
