
     RDKit          3D

 25 25  0  0  0  0  0  0  0  0999 V2000
  -21.7226   12.8299  -21.5266 C   0  0  0  0  0  0  0  0  0  0  0  0
  -23.2574   12.9145  -21.2629 C   0  0  0  0  0  0  0  0  0  0  0  0
  -23.6307   14.3410  -21.3531 C   0  0  0  0  0  0  0  0  0  0  0  0
  -24.7610   14.7709  -22.1798 C   0  0  0  0  0  0  0  0  0  0  0  0
  -25.1370   16.1944  -22.3040 C   0  0  0  0  0  0  0  0  0  0  0  0
  -26.2989   16.5595  -23.1400 C   0  0  2  0  0  0  0  0  0  0  0  0
  -26.7007   17.8568  -22.7168 O   0  0  0  0  0  0  0  0  0  0  0  0
  -27.5192   15.7204  -22.7780 C   0  0  0  0  0  0  0  0  0  0  0  0
  -28.6721   15.7986  -23.3543 C   0  0  0  0  0  0  0  0  0  0  0  0
  -29.8988   15.1012  -22.9750 C   0  0  1  0  0  0  0  0  0  0  0  0
  -30.8208   15.1051  -24.1617 C   0  0  2  0  0  0  0  0  0  0  0  0
  -31.9726   15.8669  -23.9498 O   0  0  0  0  0  0  0  0  0  0  0  0
  -31.1578   13.6474  -24.4261 C   0  0  0  0  0  0  0  0  0  0  0  0
  -29.9651   12.9720  -23.8522 C   0  0  0  0  0  0  0  0  0  0  0  0
  -29.3881   12.0689  -24.4020 O   0  0  0  0  0  0  0  0  0  0  0  0
  -29.6985   13.6433  -22.5525 C   0  0  2  0  0  0  0  0  0  0  0  0
  -30.7143   13.3467  -21.4844 C   0  0  0  0  0  0  0  0  0  0  0  0
  -30.3994   13.8179  -20.1168 C   0  0  0  0  0  0  0  0  0  0  0  0
  -31.3334   13.6276  -19.0140 C   0  0  0  0  0  0  0  0  0  0  0  0
  -31.9568   12.3228  -18.7712 C   0  0  0  0  0  0  0  0  0  0  0  0
  -32.9059   12.1324  -17.6691 C   0  0  0  0  0  0  0  0  0  0  0  0
  -33.5442   10.8056  -17.4582 C   0  0  0  0  0  0  0  0  0  0  0  0
  -32.8238    9.5999  -17.8131 C   0  0  0  0  0  0  0  0  0  0  0  0
  -31.6411    9.5772  -18.2569 O   0  0  0  0  0  0  0  0  0  0  0  0
  -33.4377    8.3614  -17.6723 O   0  0  0  0  0  0  0  0  0  0  0  0
  1  2  1  0
  2  3  1  0
  3  4  1  0
  4  5  1  0
  5  6  1  0
  6  7  1  1
  6  8  1  0
  8  9  2  0
 10  9  1  6
 10 11  1  0
 11 12  1  1
 11 13  1  0
 13 14  1  0
 14 15  2  0
 14 16  1  0
 16 17  1  1
 17 18  1  0
 18 19  1  0
 19 20  1  0
 20 21  1  0
 21 22  1  0
 22 23  1  0
 23 24  2  0
 23 25  1  0
 16 10  1  0
M  END
$$$$
