
     RDKit          3D

 18 19  0  0  0  0  0  0  0  0999 V2000
  -18.6166   -0.4587  -33.6594 C   0  0  0  0  0  0  0  0  0  0  0  0
  -18.6869    0.4398  -32.5734 O   0  0  0  0  0  0  0  0  0  0  0  0
  -17.5306    1.0691  -32.1414 C   0  0  0  0  0  0  0  0  0  0  0  0
  -17.5985    2.2204  -31.3862 C   0  0  0  0  0  0  0  0  0  0  0  0
  -16.4202    2.8019  -30.9890 C   0  0  0  0  0  0  0  0  0  0  0  0
  -15.2064    2.2477  -31.3388 C   0  0  0  0  0  0  0  0  0  0  0  0
  -14.0923    2.9377  -30.9262 C   0  0  0  0  0  0  0  0  0  0  0  0
  -12.8650    2.4186  -31.3075 C   0  0  0  0  0  0  0  0  0  0  0  0
  -12.7391    1.2837  -32.0520 C   0  0  0  0  0  0  0  0  0  0  0  0
  -13.8679    0.6024  -32.4562 C   0  0  0  0  0  0  0  0  0  0  0  0
  -13.7344   -0.6808  -33.1430 C   0  0  0  0  0  0  0  0  0  0  0  0
  -13.5848   -1.8633  -32.2241 C   0  0  0  0  0  0  0  0  0  0  0  0
  -13.5039   -3.1516  -32.8199 N   0  0  0  0  0  0  0  0  0  0  0  0
  -14.6102   -3.9733  -33.1484 C   0  0  0  0  0  0  0  0  0  0  0  0
  -14.3427   -5.1643  -34.0119 C   0  0  0  0  0  0  0  0  0  0  0  0
  -15.7576   -3.7035  -32.7266 O   0  0  0  0  0  0  0  0  0  0  0  0
  -15.0999    1.0822  -32.1028 C   0  0  0  0  0  0  0  0  0  0  0  0
  -16.2886    0.5246  -32.4826 C   0  0  0  0  0  0  0  0  0  0  0  0
  1  2  1  0
  2  3  1  0
  3  4  2  0
  4  5  1  0
  5  6  2  0
  6  7  1  0
  7  8  2  0
  8  9  1  0
  9 10  2  0
 10 11  1  0
 11 12  1  0
 12 13  1  0
 13 14  1  0
 14 15  1  0
 14 16  2  0
 10 17  1  0
 17 18  2  0
 18  3  1  0
 17  6  1  0
M  END
$$$$
