
     RDKit          3D

 31 36  0  0  0  0  0  0  0  0999 V2000
  -25.5885   23.4299  -35.4273 O   0  0  0  0  0  0  0  0  0  0  0  0
  -26.1969   23.4254  -36.5451 C   0  0  0  0  0  0  0  0  0  0  0  0
  -25.5909   22.7879  -37.6452 N   0  0  0  0  0  0  0  0  0  0  0  0
  -24.3331   22.1052  -37.5922 C   0  0  0  0  0  0  0  0  0  0  0  0
  -23.5192   21.5428  -38.2385 N   0  0  0  0  0  0  0  0  0  0  0  0
  -22.3928   20.9885  -37.8688 C   0  0  0  0  0  0  0  0  0  0  0  0
  -21.4288   20.3199  -38.6475 C   0  0  0  0  0  0  0  0  0  0  0  0
  -20.3091   19.8089  -38.0547 C   0  0  0  0  0  0  0  0  0  0  0  0
  -20.0097   19.8804  -36.7222 C   0  0  0  0  0  0  0  0  0  0  0  0
  -18.8636   19.3627  -36.0851 N   0  0  0  0  0  0  0  0  0  0  0  0
  -18.9032   18.4149  -35.0209 C   0  0  0  0  0  0  0  0  0  0  0  0
  -20.0391   17.8897  -34.8044 O   0  0  0  0  0  0  0  0  0  0  0  0
  -17.7139   18.0623  -34.2215 C   0  0  0  0  0  0  0  0  0  0  0  0
  -17.2640   16.6716  -34.6408 C   0  0  0  0  0  0  0  0  0  0  0  0
  -16.0930   16.2146  -33.7988 C   0  0  0  0  0  0  0  0  0  0  0  0
  -14.9612   17.1912  -34.0266 C   0  0  0  0  0  0  0  0  0  0  0  0
  -15.4031   18.5625  -33.6223 C   0  0  0  0  0  0  0  0  0  0  0  0
  -15.7484   18.5739  -32.1469 C   0  0  0  0  0  0  0  0  0  0  0  0
  -16.8785   17.6039  -31.9291 C   0  0  0  0  0  0  0  0  0  0  0  0
  -16.4853   16.1930  -32.3456 C   0  0  0  0  0  0  0  0  0  0  0  0
  -18.0731   17.9911  -32.7512 C   0  0  0  0  0  0  0  0  0  0  0  0
  -16.5509   18.9919  -34.4775 C   0  0  0  0  0  0  0  0  0  0  0  0
  -20.9617   20.5433  -35.9382 C   0  0  0  0  0  0  0  0  0  0  0  0
  -22.0922   21.0598  -36.5336 C   0  0  0  0  0  0  0  0  0  0  0  0
  -23.5067   21.9517  -35.8929 S   0  0  0  0  0  0  0  0  0  0  0  0
  -27.4952   24.0658  -36.6899 C   0  0  0  0  0  0  0  0  0  0  0  0
  -28.4623   24.0981  -35.7186 C   0  0  0  0  0  0  0  0  0  0  0  0
  -29.6920   24.7311  -35.9201 C   0  0  0  0  0  0  0  0  0  0  0  0
  -29.9824   25.3527  -37.1136 C   0  0  0  0  0  0  0  0  0  0  0  0
  -29.0198   25.3283  -38.0993 C   0  0  0  0  0  0  0  0  0  0  0  0
  -27.8087   24.7033  -37.8972 C   0  0  0  0  0  0  0  0  0  0  0  0
  1  2  2  0
  2  3  1  0
  3  4  1  0
  4  5  2  0
  5  6  1  0
  6  7  2  0
  7  8  1  0
  8  9  2  0
  9 10  1  0
 10 11  1  0
 11 12  2  0
 11 13  1  0
 13 14  1  0
 14 15  1  0
 15 16  1  0
 16 17  1  0
 17 18  1  0
 18 19  1  0
 19 20  1  0
 19 21  1  0
 17 22  1  0
  9 23  1  0
 23 24  2  0
 24 25  1  0
  2 26  1  0
 26 27  2  0
 27 28  1  0
 28 29  2  0
 29 30  1  0
 30 31  2  0
 25  4  1  0
 31 26  1  0
 24  6  1  0
 21 13  1  0
 22 13  1  0
 20 15  1  0
M  END
$$$$
