
     RDKit          3D

 19 20  0  0  0  0  0  0  0  0999 V2000
  -20.9167   37.9906  -24.2248 O   0  0  0  0  0  0  0  0  0  0  0  0
  -19.8578   38.1632  -23.5669 C   0  0  0  0  0  0  0  0  0  0  0  0
  -18.7668   37.3715  -23.8979 O   0  0  0  0  0  0  0  0  0  0  0  0
  -19.8132   39.1687  -22.4995 C   0  0  0  0  0  0  0  0  0  0  0  0
  -18.5352   39.3124  -21.7542 C   0  0  0  0  0  0  0  0  0  0  0  0
  -18.5338   40.3633  -20.7071 C   0  0  0  0  0  0  0  0  0  0  0  0
  -19.0374   40.3024  -19.4245 C   0  0  0  0  0  0  0  0  0  0  0  0
  -19.7992   39.1985  -18.8025 C   0  0  0  0  0  0  0  0  0  0  0  0
  -20.1489   39.2072  -17.6137 O   0  0  0  0  0  0  0  0  0  0  0  0
  -20.1376   38.1065  -19.5819 O   0  0  0  0  0  0  0  0  0  0  0  0
  -18.7397   41.4683  -18.8190 N   0  0  0  0  0  0  0  0  0  0  0  0
  -18.0728   42.2853  -19.6376 C   0  0  0  0  0  0  0  0  0  0  0  0
  -17.5539   43.5725  -19.4874 C   0  0  0  0  0  0  0  0  0  0  0  0
  -16.9029   44.1740  -20.5235 C   0  0  0  0  0  0  0  0  0  0  0  0
  -16.2600   45.8080  -20.2938 Cl  0  0  0  0  0  0  0  0  0  0  0  0
  -16.7479   43.5269  -21.7242 C   0  0  0  0  0  0  0  0  0  0  0  0
  -17.2681   42.2510  -21.8572 C   0  0  0  0  0  0  0  0  0  0  0  0
  -17.0332   41.4892  -23.4073 Cl  0  0  0  0  0  0  0  0  0  0  0  0
  -17.9310   41.6135  -20.8331 C   0  0  0  0  0  0  0  0  0  0  0  0
  1  2  2  0
  2  3  1  0
  2  4  1  0
  4  5  1  0
  5  6  1  0
  6  7  2  0
  7  8  1  0
  8  9  2  0
  8 10  1  0
  7 11  1  0
 11 12  1  0
 12 13  2  0
 13 14  1  0
 14 15  1  0
 14 16  2  0
 16 17  1  0
 17 18  1  0
 17 19  2  0
 19  6  1  0
 19 12  1  0
M  END
$$$$
