
     RDKit          3D

 31 35  0  0  0  0  0  0  0  0999 V2000
  -19.4023   33.7502  -27.0092 C   0  0  0  0  0  0  0  0  0  0  0  0
  -20.1124   34.5822  -25.9667 C   0  0  0  0  0  0  0  0  0  0  0  0
  -20.1274   36.0318  -26.2693 C   0  0  0  0  0  0  0  0  0  0  0  0
  -20.4805   36.9667  -25.1781 C   0  0  0  0  0  0  0  0  0  0  0  0
  -21.7380   36.6905  -24.6969 O   0  0  0  0  0  0  0  0  0  0  0  0
  -21.6961   36.6020  -23.3347 C   0  0  2  0  0  0  0  0  0  0  0  0
  -22.6769   37.6194  -22.7614 C   0  0  0  0  0  0  0  0  0  0  0  0
  -21.9296   38.8674  -22.9989 C   0  0  1  0  0  0  0  0  0  0  0  0
  -22.4121   40.1073  -22.3012 C   0  0  2  0  0  0  0  0  0  0  0  0
  -23.8705   40.2637  -22.7083 C   0  0  0  0  0  0  0  0  0  0  0  0
  -24.3901   41.6455  -22.4073 C   0  0  0  0  0  0  0  0  0  0  0  0
  -23.4659   42.7025  -22.8840 C   0  0  0  0  0  0  0  0  0  0  0  0
  -23.9092   43.6732  -23.6285 C   0  0  0  0  0  0  0  0  0  0  0  0
  -23.0050   44.6926  -24.0854 C   0  0  0  0  0  0  0  0  0  0  0  0
  -23.4491   45.6282  -24.8070 O   0  0  0  0  0  0  0  0  0  0  0  0
  -21.6095   44.6417  -23.7207 C   0  0  0  0  0  0  0  0  0  0  0  0
  -21.1964   43.6402  -22.9630 C   0  0  0  0  0  0  0  0  0  0  0  0
  -22.0326   42.5526  -22.4450 C   0  0  1  0  0  0  0  0  0  0  0  0
  -22.0762   42.6322  -20.9341 C   0  0  0  0  0  0  0  0  0  0  0  0
  -21.5817   41.2248  -22.9493 C   0  0  1  0  0  0  0  0  0  0  0  0
  -20.1236   40.9878  -22.9236 C   0  0  1  0  0  0  0  0  0  0  0  0
  -19.4741   41.5862  -21.8163 O   0  0  0  0  0  0  0  0  0  0  0  0
  -19.6370   39.6013  -23.0548 C   0  0  0  0  0  0  0  0  0  0  0  0
  -20.5498   38.5611  -22.4721 C   0  0  1  0  0  0  0  0  0  0  0  0
  -20.4524   38.6894  -20.9723 C   0  0  0  0  0  0  0  0  0  0  0  0
  -20.3352   37.1634  -22.9432 C   0  0  1  0  0  0  0  0  0  0  0  0
  -19.8147   36.2849  -21.8801 C   0  0  0  0  0  0  0  0  0  0  0  0
  -20.3355   36.2811  -20.7954 O   0  0  0  0  0  0  0  0  0  0  0  0
  -18.6581   35.4052  -22.1239 C   0  0  0  0  0  0  0  0  0  0  0  0
  -18.3857   34.5737  -21.0378 O   0  0  0  0  0  0  0  0  0  0  0  0
  -19.6174   37.0708  -24.1261 O   0  0  0  0  0  0  0  0  0  0  0  0
  1  2  1  0
  2  3  1  0
  3  4  1  0
  4  5  1  0
  5  6  1  0
  6  7  1  1
  8  7  1  1
  8  9  1  0
  9 10  1  6
 10 11  1  0
 11 12  1  0
 12 13  2  0
 13 14  1  0
 14 15  2  0
 14 16  1  0
 16 17  2  0
 17 18  1  0
 18 19  1  1
 18 20  1  0
 20 21  1  1
 21 22  1  1
 21 23  1  0
 23 24  1  0
 24 25  1  1
 24 26  1  0
 26 27  1  1
 27 28  2  0
 27 29  1  0
 29 30  1  0
 26 31  1  0
 31  4  1  0
 26  6  1  0
 24  8  1  0
 20  9  1  0
 18 12  1  0
M  END
$$$$
