
     RDKit          3D

 44 47  0  0  0  0  0  0  0  0999 V2000
  -37.1334    2.5490  -23.4043 C   0  0  0  0  0  0  0  0  0  0  0  0
  -36.3105    3.5770  -22.6538 C   0  0  0  0  0  0  0  0  0  0  0  0
  -36.6851    3.5610  -21.2065 C   0  0  0  0  0  0  0  0  0  0  0  0
  -35.8907    4.5572  -20.4143 C   0  0  0  0  0  0  0  0  0  0  0  0
  -36.2603    4.6147  -18.9510 C   0  0  0  0  0  0  0  0  0  0  0  0
  -35.3758    5.5849  -18.2323 C   0  0  0  0  0  0  0  0  0  0  0  0
  -35.6383    5.7464  -16.7784 C   0  0  0  0  0  0  0  0  0  0  0  0
  -34.6350    6.6551  -16.0948 C   0  0  0  0  0  0  0  0  0  0  0  0
  -33.9774    7.5766  -17.1087 C   0  0  0  0  0  0  0  0  0  0  0  0
  -32.9497    8.4893  -16.5101 C   0  0  0  0  0  0  0  0  0  0  0  0
  -32.9780    9.8675  -17.0717 C   0  0  0  0  0  0  0  0  0  0  0  0
  -31.9085   10.1125  -18.0802 C   0  0  0  0  0  0  0  0  0  0  0  0
  -31.8476   11.4015  -18.7636 C   0  0  0  0  0  0  0  0  0  0  0  0
  -30.7745   11.5750  -19.7366 C   0  0  0  0  0  0  0  0  0  0  0  0
  -29.8626   10.6515  -19.8052 O   0  0  0  0  0  0  0  0  0  0  0  0
  -30.5602   12.6053  -20.6261 O   0  0  0  0  0  0  0  0  0  0  0  0
  -29.6810   12.4874  -21.7413 C   0  0  2  0  0  0  0  0  0  0  0  0
  -28.3607   13.2200  -21.3958 C   0  0  1  0  0  0  0  0  0  0  0  0
  -27.2794   12.2583  -20.9656 C   0  0  0  0  0  0  0  0  0  0  0  0
  -27.9335   14.0399  -22.5493 C   0  0  1  0  0  0  0  0  0  0  0  0
  -27.7352   13.1450  -23.6309 O   0  0  0  0  0  0  0  0  0  0  0  0
  -29.1334   14.9091  -22.9138 C   0  0  1  0  0  0  0  0  0  0  0  0
  -28.6998   16.0816  -23.6881 C   0  0  0  0  0  0  0  0  0  0  0  0
  -27.9102   17.0626  -23.2624 C   0  0  0  0  0  0  0  0  0  0  0  0
  -27.6050   18.1490  -24.2264 C   0  0  0  0  0  0  0  0  0  0  0  0
  -28.2425   19.3337  -23.9503 O   0  0  0  0  0  0  0  0  0  0  0  0
  -27.2783   17.2270  -21.9307 C   0  0  0  0  0  0  0  0  0  0  0  0
  -26.6968   15.9298  -21.4179 C   0  0  2  0  0  0  0  0  0  0  0  0
  -27.1778   15.6124  -20.1828 O   0  0  0  0  0  0  0  0  0  0  0  0
  -25.2142   16.1456  -21.2901 C   0  0  0  0  0  0  0  0  0  0  0  0
  -24.6340   17.1926  -20.9616 O   0  0  0  0  0  0  0  0  0  0  0  0
  -24.6113   14.8450  -21.6401 C   0  0  0  0  0  0  0  0  0  0  0  0
  -23.1940   14.5111  -21.2466 C   0  0  0  0  0  0  0  0  0  0  0  0
  -25.4640   14.0985  -22.2996 C   0  0  0  0  0  0  0  0  0  0  0  0
  -26.7162   14.8445  -22.4456 C   0  0  1  0  0  0  0  0  0  0  0  0
  -29.9944   14.0327  -23.7481 C   0  0  2  0  0  0  0  0  0  0  0  0
  -31.3368   13.5778  -23.4602 C   0  0  0  0  0  0  0  0  0  0  0  0
  -32.2449   14.2242  -22.4752 C   0  0  0  0  0  0  0  0  0  0  0  0
  -32.1275   13.0550  -24.6833 C   0  0  0  0  0  0  0  0  0  0  0  0
  -30.1824   12.7130  -23.0903 C   0  0  2  0  0  0  0  0  0  0  0  0
  -29.8709   11.6461  -24.0434 O   0  0  0  0  0  0  0  0  0  0  0  0
  -30.5792   10.4940  -24.1234 C   0  0  0  0  0  0  0  0  0  0  0  0
  -30.1641    9.4475  -25.1112 C   0  0  0  0  0  0  0  0  0  0  0  0
  -31.5716   10.3151  -23.3729 O   0  0  0  0  0  0  0  0  0  0  0  0
  1  2  1  0
  2  3  1  0
  3  4  1  0
  4  5  1  0
  5  6  1  0
  6  7  1  0
  7  8  1  0
  8  9  1  0
  9 10  1  0
 10 11  1  0
 11 12  1  0
 12 13  1  0
 13 14  1  0
 14 15  2  0
 14 16  1  0
 17 16  1  1
 17 18  1  0
 18 19  1  6
 18 20  1  0
 20 21  1  6
 20 22  1  0
 22 23  1  6
 23 24  2  0
 24 25  1  0
 25 26  1  0
 24 27  1  0
 27 28  1  0
 28 29  1  1
 28 30  1  0
 30 31  2  0
 30 32  1  0
 32 33  1  0
 32 34  2  0
 35 34  1  1
 22 36  1  0
 36 37  1  1
 37 38  1  0
 37 39  1  0
 37 40  1  0
 40 41  1  6
 41 42  1  0
 42 43  1  0
 42 44  2  0
 40 17  1  0
 35 20  1  0
 40 36  1  0
 35 28  1  0
M  END
$$$$
