
     RDKit          3D

 12 13  0  0  0  0  0  0  0  0999 V2000
  -27.6617   11.6717  -23.8515 C   0  0  0  0  0  0  0  0  0  0  0  0
  -27.8106   13.0761  -23.2534 C   0  0  0  0  0  0  0  0  0  0  0  0
  -27.4642   14.0495  -24.3531 C   0  0  0  0  0  0  0  0  0  0  0  0
  -27.4749   15.4774  -23.9133 C   0  0  0  0  0  0  0  0  0  0  0  0
  -26.9085   15.6112  -22.5548 C   0  0  0  0  0  0  0  0  0  0  0  0
  -25.9015   16.6824  -22.4019 C   0  0  0  0  0  0  0  0  0  0  0  0
  -25.8414   17.7652  -23.0379 O   0  0  0  0  0  0  0  0  0  0  0  0
  -25.0311   16.2512  -21.4103 O   0  0  0  0  0  0  0  0  0  0  0  0
  -25.2464   14.8821  -21.1540 C   0  0  0  0  0  0  0  0  0  0  0  0
  -24.8483   14.2584  -20.1296 O   0  0  0  0  0  0  0  0  0  0  0  0
  -26.0038   14.3935  -22.3074 C   0  0  0  0  0  0  0  0  0  0  0  0
  -26.8948   13.2411  -22.0480 C   0  0  0  0  0  0  0  0  0  0  0  0
  1  2  1  0
  2  3  1  0
  3  4  1  0
  4  5  1  0
  5  6  1  0
  6  7  2  0
  6  8  1  0
  8  9  1  0
  9 10  2  0
  9 11  1  0
 11 12  1  0
 12  2  1  0
 11  5  1  0
M  END
$$$$
