
     RDKit          3D

 21 22  0  0  0  0  0  0  0  0999 V2000
  -51.7507   20.8912  -19.6281 C   0  0  0  0  0  0  0  0  0  0  0  0
  -50.9649   20.1680  -18.5548 C   0  0  0  0  0  0  0  0  0  0  0  0
  -51.7425   19.7937  -17.3498 C   0  0  0  0  0  0  0  0  0  0  0  0
  -50.9479   19.1051  -16.3166 N   0  0  0  0  0  0  0  0  0  0  0  0
  -50.8418   17.6979  -16.3431 C   0  0  0  0  0  0  0  0  0  0  0  0
  -51.5466   16.9752  -17.3117 C   0  0  0  0  0  0  0  0  0  0  0  0
  -51.4838   15.5883  -17.3708 C   0  0  0  0  0  0  0  0  0  0  0  0
  -50.7232   14.8854  -16.4726 C   0  0  0  0  0  0  0  0  0  0  0  0
  -50.0186   15.5682  -15.5066 C   0  0  0  0  0  0  0  0  0  0  0  0
  -50.1035   16.9214  -15.4795 C   0  0  0  0  0  0  0  0  0  0  0  0
  -49.1808   17.7272  -14.1961 S   0  0  0  0  0  0  0  0  0  0  0  0
  -49.4603   19.4576  -14.3426 C   0  0  0  0  0  0  0  0  0  0  0  0
  -48.8244   20.2770  -13.4296 C   0  0  0  0  0  0  0  0  0  0  0  0
  -49.0155   21.6323  -13.5307 C   0  0  0  0  0  0  0  0  0  0  0  0
  -49.8143   22.1756  -14.5079 C   0  0  0  0  0  0  0  0  0  0  0  0
  -50.4302   21.2904  -15.4022 C   0  0  0  0  0  0  0  0  0  0  0  0
  -50.2751   19.9226  -15.3478 C   0  0  0  0  0  0  0  0  0  0  0  0
  -50.2132   19.1263  -19.2133 N   0  0  0  0  0  0  0  0  0  0  0  0
  -49.0998   19.7932  -19.9138 C   0  0  0  0  0  0  0  0  0  0  0  0
  -51.0769   18.5781  -20.2843 C   0  0  0  0  0  0  0  0  0  0  0  0
  -50.3969   18.8265  -16.5996 Cl  0  0  0  0  0  0  0  0  0  0  0  0
  1  2  1  0
  2  3  1  0
  3  4  1  0
  4  5  1  0
  5  6  2  0
  6  7  1  0
  7  8  2  0
  8  9  1  0
  9 10  2  0
 10 11  1  0
 11 12  1  0
 12 13  2  0
 13 14  1  0
 14 15  2  0
 15 16  1  0
 16 17  2  0
  2 18  1  0
 18 19  1  0
 18 20  1  0
 17  4  1  0
 10  5  1  0
 17 12  1  0
M  END
$$$$
