
     RDKit          3D

 22 24  0  0  0  0  0  0  0  0999 V2000
  -33.0901   10.9893  -17.8704 C   0  0  0  0  0  0  0  0  0  0  0  0
  -31.8587   10.8439  -18.3939 O   0  0  0  0  0  0  0  0  0  0  0  0
  -30.9673   11.5865  -19.0830 C   0  0  0  0  0  0  0  0  0  0  0  0
  -31.2991   12.9265  -19.3029 C   0  0  0  0  0  0  0  0  0  0  0  0
  -30.4625   13.7418  -19.9870 C   0  0  0  0  0  0  0  0  0  0  0  0
  -29.2360   13.2767  -20.4993 C   0  0  0  0  0  0  0  0  0  0  0  0
  -28.3822   14.2206  -21.2387 C   0  0  0  0  0  0  0  0  0  0  0  0
  -28.3696   15.5614  -21.0122 C   0  0  0  0  0  0  0  0  0  0  0  0
  -27.5317   16.4164  -21.7517 C   0  0  0  0  0  0  0  0  0  0  0  0
  -27.4833   17.6475  -21.5836 O   0  0  0  0  0  0  0  0  0  0  0  0
  -26.7115   15.8366  -22.7294 C   0  0  0  0  0  0  0  0  0  0  0  0
  -25.8488   16.5615  -23.5129 C   0  0  0  0  0  0  0  0  0  0  0  0
  -25.7858   17.9626  -23.3250 O   0  0  0  0  0  0  0  0  0  0  0  0
  -25.0378   15.9958  -24.4700 C   0  0  0  0  0  0  0  0  0  0  0  0
  -25.1050   14.6503  -24.6413 C   0  0  0  0  0  0  0  0  0  0  0  0
  -24.3075   13.9944  -25.6090 O   0  0  0  0  0  0  0  0  0  0  0  0
  -25.9551   13.8823  -23.8789 C   0  0  0  0  0  0  0  0  0  0  0  0
  -26.7745   14.4719  -22.9055 C   0  0  0  0  0  0  0  0  0  0  0  0
  -27.5836   13.7567  -22.1723 O   0  0  0  0  0  0  0  0  0  0  0  0
  -28.9320   11.9778  -20.2775 C   0  0  0  0  0  0  0  0  0  0  0  0
  -29.7685   11.1285  -19.5825 C   0  0  0  0  0  0  0  0  0  0  0  0
  -29.3864    9.8176  -19.3917 O   0  0  0  0  0  0  0  0  0  0  0  0
  1  2  1  0
  2  3  1  0
  3  4  2  0
  4  5  1  0
  5  6  2  0
  6  7  1  0
  7  8  2  0
  8  9  1  0
  9 10  2  0
  9 11  1  0
 11 12  2  0
 12 13  1  0
 12 14  1  0
 14 15  2  0
 15 16  1  0
 15 17  1  0
 17 18  2  0
 18 19  1  0
  6 20  1  0
 20 21  2  0
 21 22  1  0
 21  3  1  0
 19  7  1  0
 18 11  1  0
M  END
$$$$
