
     RDKit          3D

 16 16  0  0  0  0  0  0  0  0999 V2000
  -47.2879    8.9944  -33.2736 C   0  0  0  0  0  0  0  0  0  0  0  0
  -46.2334    8.1343  -33.9640 C   0  0  0  0  0  0  0  0  0  0  0  0
  -45.9787    8.5370  -35.3140 N   0  0  0  0  0  0  0  0  0  0  0  0
  -46.8936    8.1362  -36.3538 C   0  0  0  0  0  0  0  0  0  0  0  0
  -46.5545    6.6979  -36.7679 C   0  0  0  0  0  0  0  0  0  0  0  0
  -44.8650    9.3238  -35.6327 C   0  0  0  0  0  0  0  0  0  0  0  0
  -44.7792    9.7392  -36.8484 O   0  0  0  0  0  0  0  0  0  0  0  0
  -43.7977    9.7151  -34.7249 C   0  0  0  0  0  0  0  0  0  0  0  0
  -44.0098   10.6611  -33.7601 C   0  0  0  0  0  0  0  0  0  0  0  0
  -43.0109   11.0471  -32.8688 C   0  0  0  0  0  0  0  0  0  0  0  0
  -41.7870   10.4424  -32.9857 C   0  0  0  0  0  0  0  0  0  0  0  0
  -40.7880   10.8226  -32.1027 O   0  0  0  0  0  0  0  0  0  0  0  0
  -41.5074    9.4702  -33.9465 C   0  0  0  0  0  0  0  0  0  0  0  0
  -40.2426    8.9148  -33.9831 O   0  0  0  0  0  0  0  0  0  0  0  0
  -39.8502    7.8348  -34.7934 C   0  0  0  0  0  0  0  0  0  0  0  0
  -42.5375    9.1252  -34.8077 C   0  0  0  0  0  0  0  0  0  0  0  0
  1  2  1  0
  2  3  1  0
  3  4  1  0
  4  5  1  0
  3  6  1  0
  6  7  2  0
  6  8  1  0
  8  9  2  0
  9 10  1  0
 10 11  2  0
 11 12  1  0
 11 13  1  0
 13 14  1  0
 14 15  1  0
 13 16  2  0
 16  8  1  0
M  END
$$$$
