
     RDKit          3D

 28 31  0  0  0  0  0  0  0  0999 V2000
  -18.4921   16.2786  -28.9346 O   0  0  0  0  0  0  0  0  0  0  0  0
  -18.4264   16.1876  -30.1884 C   0  0  0  0  0  0  0  0  0  0  0  0
  -18.2026   15.0337  -30.8289 N   0  0  0  0  0  0  0  0  0  0  0  0
  -18.1388   14.9714  -32.1624 C   0  0  0  0  0  0  0  0  0  0  0  0
  -18.2988   16.0768  -32.9108 N   0  0  0  0  0  0  0  0  0  0  0  0
  -18.2352   16.0142  -34.2374 N   0  0  0  0  0  0  0  0  0  0  0  0
  -18.3899   17.0968  -35.0217 C   0  0  0  0  0  0  0  0  0  0  0  0
  -18.2815   16.8725  -36.7724 S   0  0  0  0  0  0  0  0  0  0  0  0
  -16.7268   17.3191  -37.4474 C   0  0  0  0  0  0  0  0  0  0  0  0
  -15.5689   16.8104  -36.9100 C   0  0  0  0  0  0  0  0  0  0  0  0
  -14.3129   17.1432  -37.4208 C   0  0  0  0  0  0  0  0  0  0  0  0
  -14.2470   18.0096  -38.4972 C   0  0  0  0  0  0  0  0  0  0  0  0
  -13.0063   18.3039  -38.9593 F   0  0  0  0  0  0  0  0  0  0  0  0
  -15.3982   18.5277  -39.0468 C   0  0  0  0  0  0  0  0  0  0  0  0
  -16.6420   18.1789  -38.5172 C   0  0  0  0  0  0  0  0  0  0  0  0
  -17.7382   18.7263  -39.1072 F   0  0  0  0  0  0  0  0  0  0  0  0
  -18.6214   18.3021  -34.4099 C   0  0  0  0  0  0  0  0  0  0  0  0
  -18.6871   18.3681  -33.0468 C   0  0  0  0  0  0  0  0  0  0  0  0
  -18.5277   17.2603  -32.2696 C   0  0  0  0  0  0  0  0  0  0  0  0
  -18.5966   17.3459  -30.9106 C   0  0  0  0  0  0  0  0  0  0  0  0
  -18.8419   18.6229  -30.2617 C   0  0  0  0  0  0  0  0  0  0  0  0
  -20.1337   19.0609  -30.0746 C   0  0  0  0  0  0  0  0  0  0  0  0
  -21.5245   18.1063  -30.6060 Cl  0  0  0  0  0  0  0  0  0  0  0  0
  -20.3137   20.2800  -29.4534 C   0  0  0  0  0  0  0  0  0  0  0  0
  -19.2679   21.0548  -29.0246 C   0  0  0  0  0  0  0  0  0  0  0  0
  -17.9925   20.5697  -29.2364 C   0  0  0  0  0  0  0  0  0  0  0  0
  -17.7649   19.3548  -29.8539 C   0  0  0  0  0  0  0  0  0  0  0  0
  -16.1062   18.8350  -30.0722 Cl  0  0  0  0  0  0  0  0  0  0  0  0
  1  2  2  0
  2  3  1  0
  3  4  2  0
  4  5  1  0
  5  6  1  0
  6  7  2  0
  7  8  1  0
  8  9  1  0
  9 10  2  0
 10 11  1  0
 11 12  2  0
 12 13  1  0
 12 14  1  0
 14 15  2  0
 15 16  1  0
  7 17  1  0
 17 18  2  0
 18 19  1  0
 19 20  2  0
 20 21  1  0
 21 22  2  0
 22 23  1  0
 22 24  1  0
 24 25  2  0
 25 26  1  0
 26 27  2  0
 27 28  1  0
 20  2  1  0
 27 21  1  0
 19  5  1  0
 15  9  1  0
M  END
$$$$
