
     RDKit          3D

 23 22  0  0  0  0  0  0  0  0999 V2000
  -13.4068   42.3441  -19.7467 C   0  0  0  0  0  0  0  0  0  0  0  0
  -12.9107   43.7705  -19.7603 C   0  0  0  0  0  0  0  0  0  0  0  0
  -14.0564   44.6450  -20.2679 C   0  0  0  0  0  0  0  0  0  0  0  0
  -15.2081   44.4613  -19.3055 C   0  0  0  0  0  0  0  0  0  0  0  0
  -16.3606   45.3137  -19.7650 C   0  0  0  0  0  0  0  0  0  0  0  0
  -16.8260   44.9439  -21.1349 C   0  0  0  0  0  0  0  0  0  0  0  0
  -17.2936   43.5126  -21.2495 C   0  0  0  0  0  0  0  0  0  0  0  0
  -18.4354   43.3124  -20.3059 C   0  0  0  0  0  0  0  0  0  0  0  0
  -18.9627   41.9221  -20.3540 C   0  0  0  0  0  0  0  0  0  0  0  0
  -18.4568   40.9420  -19.5272 C   0  0  0  0  0  0  0  0  0  0  0  0
  -18.9374   39.6504  -19.5628 C   0  0  0  0  0  0  0  0  0  0  0  0
  -19.9625   39.2619  -20.4369 C   0  0  0  0  0  0  0  0  0  0  0  0
  -20.4576   37.8854  -20.4607 C   0  0  0  0  0  0  0  0  0  0  0  0
  -20.0007   36.9444  -21.4854 C   0  0  0  0  0  0  0  0  0  0  0  0
  -18.5563   36.6290  -21.6230 C   0  0  0  0  0  0  0  0  0  0  0  0
  -17.9094   36.1120  -20.4597 N   0  0  0  0  0  0  0  0  0  0  0  0
  -17.7645   37.5384  -22.4857 C   0  0  0  0  0  0  0  0  0  0  0  0
  -17.2708   38.6649  -21.9185 O   0  0  0  0  0  0  0  0  0  0  0  0
  -18.6116   35.2925  -22.5342 C   0  0  0  0  0  0  0  0  0  0  0  0
  -19.2315   35.7013  -23.6995 O   0  0  0  0  0  0  0  0  0  0  0  0
  -20.4502   40.2629  -21.2528 C   0  0  0  0  0  0  0  0  0  0  0  0
  -19.9712   41.5555  -21.2191 C   0  0  0  0  0  0  0  0  0  0  0  0
  -17.0792   41.2907  -20.5122 Cl  0  0  0  0  0  0  0  0  0  0  0  0
  1  2  1  0
  2  3  1  0
  3  4  1  0
  4  5  1  0
  5  6  1  0
  6  7  1  0
  7  8  1  0
  8  9  1  0
  9 10  2  0
 10 11  1  0
 11 12  2  0
 12 13  1  0
 13 14  1  0
 14 15  1  0
 15 16  1  0
 15 17  1  0
 17 18  1  0
 15 19  1  0
 19 20  1  0
 12 21  1  0
 21 22  2  0
 22  9  1  0
M  END
$$$$
