
     RDKit          3D

 25 27  0  0  0  0  0  0  0  0999 V2000
  -17.6333   19.9095  -39.3925 C   0  0  0  0  0  0  0  0  0  0  0  0
  -17.9576   20.4943  -40.6369 O   0  0  0  0  0  0  0  0  0  0  0  0
  -18.6694   21.6815  -40.6921 C   0  0  0  0  0  0  0  0  0  0  0  0
  -19.9150   21.8150  -40.1075 C   0  0  0  0  0  0  0  0  0  0  0  0
  -20.6218   23.0151  -40.1697 C   0  0  0  0  0  0  0  0  0  0  0  0
  -21.9183   23.1438  -39.5575 N   0  0  0  0  0  0  0  0  0  0  0  0
  -22.2898   24.3079  -38.8360 C   0  0  0  0  0  0  0  0  0  0  0  0
  -21.5592   25.3237  -38.9123 O   0  0  0  0  0  0  0  0  0  0  0  0
  -23.5021   24.3620  -38.0025 C   0  0  0  0  0  0  0  0  0  0  0  0
  -23.5110   24.5100  -36.6400 C   0  0  0  0  0  0  0  0  0  0  0  0
  -24.8224   24.5148  -36.2324 C   0  0  0  0  0  0  0  0  0  0  0  0
  -25.5753   24.3673  -37.3797 C   0  0  0  0  0  0  0  0  0  0  0  0
  -27.0328   24.3222  -37.3909 C   0  0  0  0  0  0  0  0  0  0  0  0
  -27.8104   25.0521  -36.5275 C   0  0  0  0  0  0  0  0  0  0  0  0
  -29.2052   24.9683  -36.5850 C   0  0  0  0  0  0  0  0  0  0  0  0
  -29.7803   24.1292  -37.5365 C   0  0  0  0  0  0  0  0  0  0  0  0
  -31.5412   24.0527  -37.5753 Cl  0  0  0  0  0  0  0  0  0  0  0  0
  -29.0191   23.3926  -38.4071 C   0  0  0  0  0  0  0  0  0  0  0  0
  -27.6538   23.5084  -38.3119 C   0  0  0  0  0  0  0  0  0  0  0  0
  -24.7455   24.2826  -38.3880 O   0  0  0  0  0  0  0  0  0  0  0  0
  -20.0248   24.0633  -40.8396 C   0  0  0  0  0  0  0  0  0  0  0  0
  -18.7945   23.9751  -41.4324 C   0  0  0  0  0  0  0  0  0  0  0  0
  -18.2806   25.0727  -42.0775 O   0  0  0  0  0  0  0  0  0  0  0  0
  -17.5780   26.1117  -41.4320 C   0  0  0  0  0  0  0  0  0  0  0  0
  -18.1238   22.7606  -41.3468 C   0  0  0  0  0  0  0  0  0  0  0  0
  1  2  1  0
  2  3  1  0
  3  4  2  0
  4  5  1  0
  5  6  1  0
  6  7  1  0
  7  8  2  0
  7  9  1  0
  9 10  2  0
 10 11  1  0
 11 12  2  0
 12 13  1  0
 13 14  2  0
 14 15  1  0
 15 16  2  0
 16 17  1  0
 16 18  1  0
 18 19  2  0
 12 20  1  0
  5 21  2  0
 21 22  1  0
 22 23  1  0
 23 24  1  0
 22 25  2  0
 25  3  1  0
 20  9  1  0
 19 13  1  0
M  END
$$$$
