
     RDKit          3D

 26 27  0  0  0  0  0  0  0  0999 V2000
  -20.7967   43.7837  -19.5602 C   0  0  0  0  0  0  0  0  0  0  0  0
  -19.8783   42.8919  -20.2796 N   0  0  0  0  0  0  0  0  0  0  0  0
  -19.8945   41.5024  -20.0185 C   0  0  0  0  0  0  0  0  0  0  0  0
  -20.7309   41.0519  -19.1884 O   0  0  0  0  0  0  0  0  0  0  0  0
  -18.9358   40.6294  -20.7235 C   0  0  0  0  0  0  0  0  0  0  0  0
  -19.3011   39.2598  -20.4945 O   0  0  0  0  0  0  0  0  0  0  0  0
  -18.6639   38.2531  -21.1642 C   0  0  0  0  0  0  0  0  0  0  0  0
  -17.6354   38.5152  -21.8379 O   0  0  0  0  0  0  0  0  0  0  0  0
  -19.1429   36.8581  -21.1250 C   0  0  0  0  0  0  0  0  0  0  0  0
  -18.4396   35.8742  -21.6540 C   0  0  0  0  0  0  0  0  0  0  0  0
  -18.8878   34.4941  -21.7187 C   0  0  0  0  0  0  0  0  0  0  0  0
  -19.9730   34.0567  -22.4419 C   0  0  0  0  0  0  0  0  0  0  0  0
  -20.3515   32.7196  -22.4630 C   0  0  0  0  0  0  0  0  0  0  0  0
  -19.6432   31.7821  -21.7524 C   0  0  0  0  0  0  0  0  0  0  0  0
  -18.5422   32.1937  -21.0124 C   0  0  0  0  0  0  0  0  0  0  0  0
  -17.7970   31.2490  -20.2727 N   0  0  0  0  0  4  0  0  0  0  0  0
  -17.4911   31.4839  -19.0999 O   0  0  0  0  0  0  0  0  0  0  0  0
  -17.4146   30.0783  -20.8501 O   0  0  0  0  0  1  0  0  0  0  0  0
  -18.1909   33.5388  -21.0130 C   0  0  0  0  0  0  0  0  0  0  0  0
  -18.9479   43.4120  -21.2562 C   0  0  0  0  0  0  0  0  0  0  0  0
  -17.6788   43.7197  -20.5811 C   0  0  0  0  0  0  0  0  0  0  0  0
  -17.4037   45.1651  -20.5013 C   0  0  0  0  0  0  0  0  0  0  0  0
  -18.1428   45.7255  -22.0430 S   0  0  0  0  0  6  0  0  0  0  0  0
  -18.5866   47.1332  -21.9638 O   0  0  0  0  0  0  0  0  0  0  0  0
  -17.1784   45.4553  -23.1550 O   0  0  0  0  0  0  0  0  0  0  0  0
  -19.4915   44.5704  -22.0239 C   0  0  0  0  0  0  0  0  0  0  0  0
  1  2  1  0
  2  3  1  0
  3  4  2  0
  3  5  1  0
  5  6  1  0
  6  7  1  0
  7  8  2  0
  7  9  1  0
  9 10  2  0
 10 11  1  0
 11 12  2  0
 12 13  1  0
 13 14  2  0
 14 15  1  0
 15 16  1  0
 16 17  2  0
 16 18  1  0
 15 19  2  0
  2 20  1  0
 20 21  1  0
 21 22  1  0
 22 23  1  0
 23 24  2  0
 23 25  2  0
 23 26  1  0
 19 11  1  0
 26 20  1  0
M  CHG  2  16   1  18  -1
M  END
$$$$
