
     RDKit          3D

 24 27  0  0  0  0  0  0  0  0999 V2000
  -28.2708   17.5114  -20.4535 N   0  0  0  0  0  0  0  0  0  0  0  0
  -27.3035   17.6287  -21.4634 C   0  0  0  0  0  0  0  0  0  0  0  0
  -26.6909   18.6985  -21.6537 O   0  0  0  0  0  0  0  0  0  0  0  0
  -26.9915   16.4760  -22.3264 C   0  0  0  0  0  0  0  0  0  0  0  0
  -26.1052   16.5894  -23.3769 C   0  0  0  0  0  0  0  0  0  0  0  0
  -25.8107   15.5060  -24.1896 C   0  0  0  0  0  0  0  0  0  0  0  0
  -26.4049   14.2694  -23.9651 C   0  0  0  0  0  0  0  0  0  0  0  0
  -27.2854   14.1399  -22.9285 C   0  0  0  0  0  0  0  0  0  0  0  0
  -28.0103   13.0580  -22.4783 C   0  0  0  0  0  0  0  0  0  0  0  0
  -28.7135   13.5037  -21.4233 N   0  0  0  0  0  0  0  0  0  0  0  0
  -29.6054   12.7267  -20.6403 C   0  0  0  0  0  0  0  0  0  0  0  0
  -29.3884   11.3782  -20.3936 C   0  0  0  0  0  0  0  0  0  0  0  0
  -30.2480   10.6281  -19.6386 C   0  0  0  0  0  0  0  0  0  0  0  0
  -31.3708   11.2343  -19.1033 C   0  0  0  0  0  0  0  0  0  0  0  0
  -32.3429   10.4779  -18.2756 C   0  0  2  0  0  0  0  0  0  0  0  0
  -31.6796    9.3575  -17.5006 C   0  0  0  0  0  0  0  0  0  0  0  0
  -32.7848    8.7530  -16.6543 C   0  0  0  0  0  0  0  0  0  0  0  0
  -33.8073    8.1703  -17.5588 C   0  0  0  0  0  0  0  0  0  0  0  0
  -34.2387    8.9377  -18.6393 N   0  0  0  0  0  0  0  0  0  0  0  0
  -33.4288    9.9547  -19.1573 C   0  0  0  0  0  0  0  0  0  0  0  0
  -31.6168   12.5731  -19.3288 C   0  0  0  0  0  0  0  0  0  0  0  0
  -30.7382   13.3090  -20.0918 C   0  0  0  0  0  0  0  0  0  0  0  0
  -28.4534   14.7879  -21.2144 N   0  0  0  0  0  0  0  0  0  0  0  0
  -27.5724   15.2435  -22.1168 C   0  0  0  0  0  0  0  0  0  0  0  0
  1  2  1  0
  2  3  2  0
  2  4  1  0
  4  5  2  0
  5  6  1  0
  6  7  2  0
  7  8  1  0
  8  9  2  0
  9 10  1  0
 10 11  1  0
 11 12  2  0
 12 13  1  0
 13 14  2  0
 15 14  1  6
 15 16  1  0
 16 17  1  0
 17 18  1  0
 18 19  1  0
 19 20  1  0
 14 21  1  0
 21 22  2  0
 10 23  1  0
 23 24  2  0
 24  4  1  0
 24  8  1  0
 22 11  1  0
 20 15  1  0
M  END
$$$$
