
     RDKit          3D

 30 33  0  0  0  0  0  0  0  0999 V2000
   -9.6772   45.6455  -13.5150 C   0  0  0  0  0  0  0  0  0  0  0  0
  -10.7911   45.5385  -14.4983 C   0  0  0  0  0  0  0  0  0  0  0  0
  -11.2400   44.2257  -14.7132 O   0  0  0  0  0  0  0  0  0  0  0  0
  -12.2827   43.8288  -15.4863 C   0  0  0  0  0  0  0  0  0  0  0  0
  -13.0691   42.7820  -15.0644 C   0  0  0  0  0  0  0  0  0  0  0  0
  -14.1452   42.3240  -15.7978 C   0  0  0  0  0  0  0  0  0  0  0  0
  -14.4540   42.9447  -17.0198 C   0  0  0  0  0  0  0  0  0  0  0  0
  -15.3797   42.7394  -17.9049 O   0  0  0  0  0  0  0  0  0  0  0  0
  -15.2621   43.6130  -18.9332 C   0  0  0  0  0  0  0  0  0  0  0  0
  -16.1847   43.5955  -20.0629 C   0  0  0  0  0  0  0  0  0  0  0  0
  -16.0004   44.4652  -20.9965 O   0  0  0  0  0  0  0  0  0  0  0  0
  -17.2430   42.7163  -20.2014 N   0  0  0  0  0  0  0  0  0  0  0  0
  -18.0846   42.4642  -21.3322 C   0  0  1  0  0  0  0  0  0  0  0  0
  -18.7551   41.0895  -21.3420 C   0  0  0  0  0  0  0  0  0  0  0  0
  -19.4834   40.7902  -22.6046 C   0  0  0  0  0  0  0  0  0  0  0  0
  -20.1343   39.0865  -22.4517 S   0  0  0  0  0  0  0  0  0  0  0  0
  -21.8683   39.2337  -21.9079 C   0  0  0  0  0  0  0  0  0  0  0  0
  -19.0080   43.5320  -21.7003 C   0  0  0  0  0  0  0  0  0  0  0  0
  -19.0022   44.1960  -22.8684 N   0  0  0  0  0  0  0  0  0  0  0  0
  -19.9808   45.1164  -22.8897 C   0  0  0  0  0  0  0  0  0  0  0  0
  -20.3880   46.0353  -23.8338 C   0  0  0  0  0  0  0  0  0  0  0  0
  -21.4615   46.8711  -23.5537 C   0  0  0  0  0  0  0  0  0  0  0  0
  -22.1032   46.7801  -22.3556 C   0  0  0  0  0  0  0  0  0  0  0  0
  -21.6959   45.8587  -21.4070 C   0  0  0  0  0  0  0  0  0  0  0  0
  -20.6257   45.0214  -21.6791 C   0  0  0  0  0  0  0  0  0  0  0  0
  -20.0169   44.0575  -20.9832 N   0  0  0  0  0  0  0  0  0  0  0  0
  -14.2055   44.4042  -18.6700 C   0  0  0  0  0  0  0  0  0  0  0  0
  -13.6319   45.5417  -19.4240 C   0  0  0  0  0  0  0  0  0  0  0  0
  -13.6768   43.9881  -17.4486 C   0  0  0  0  0  0  0  0  0  0  0  0
  -12.5991   44.4254  -16.6854 C   0  0  0  0  0  0  0  0  0  0  0  0
  1  2  1  0
  2  3  1  0
  3  4  1  0
  4  5  2  0
  5  6  1  0
  6  7  2  0
  7  8  1  0
  8  9  1  0
  9 10  1  0
 10 11  2  0
 10 12  1  0
 12 13  1  0
 13 14  1  1
 14 15  1  0
 15 16  1  0
 16 17  1  0
 13 18  1  0
 18 19  2  0
 19 20  1  0
 20 21  2  0
 21 22  1  0
 22 23  2  0
 23 24  1  0
 24 25  2  0
 25 26  1  0
  9 27  2  0
 27 28  1  0
 27 29  1  0
 29 30  2  0
 30  4  1  0
 29  7  1  0
 26 18  1  0
 25 20  1  0
M  END
$$$$
