
     RDKit          3D

 25 28  0  0  0  0  0  0  0  0999 V2000
  -18.3961   44.5173  -21.4988 C   0  0  0  0  0  0  0  0  0  0  0  0
  -16.9510   44.6088  -21.4641 N   0  0  0  0  0  0  0  0  0  0  0  0
  -16.3302   43.3089  -21.3067 C   0  0  0  0  0  0  0  0  0  0  0  0
  -16.4431   43.0229  -19.8274 C   0  0  0  0  0  0  0  0  0  0  0  0
  -16.2901   44.3694  -19.2031 C   0  0  1  0  0  0  0  0  0  0  0  0
  -17.3473   44.5575  -18.1268 C   0  0  0  0  0  0  0  0  0  0  0  0
  -14.9335   44.6137  -18.6450 C   0  0  0  0  0  0  0  0  0  0  0  0
  -14.2994   44.1645  -17.4864 C   0  0  0  0  0  0  0  0  0  0  0  0
  -13.0103   44.5367  -17.1787 C   0  0  0  0  0  0  0  0  0  0  0  0
  -12.3605   44.1033  -16.0344 O   0  0  0  0  0  0  0  0  0  0  0  0
  -11.4307   43.0650  -16.1096 C   0  0  0  0  0  0  0  0  0  0  0  0
  -11.0608   42.7545  -17.2450 O   0  0  0  0  0  0  0  0  0  0  0  0
  -10.9744   42.4421  -14.9238 N   0  0  0  0  0  0  0  0  0  0  0  0
   -9.9304   41.5277  -14.8620 C   0  0  0  0  0  0  0  0  0  0  0  0
   -9.4772   40.9328  -13.7220 C   0  0  0  0  0  0  0  0  0  0  0  0
   -8.4130   40.0296  -13.8217 C   0  0  0  0  0  0  0  0  0  0  0  0
   -7.8164   39.7273  -15.0243 C   0  0  0  0  0  0  0  0  0  0  0  0
   -8.2724   40.3286  -16.1866 C   0  0  0  0  0  0  0  0  0  0  0  0
   -9.3049   41.2013  -16.0700 C   0  0  0  0  0  0  0  0  0  0  0  0
  -12.3631   45.3742  -18.0607 C   0  0  0  0  0  0  0  0  0  0  0  0
  -12.9873   45.8271  -19.2182 C   0  0  0  0  0  0  0  0  0  0  0  0
  -14.2905   45.4499  -19.5278 C   0  0  0  0  0  0  0  0  0  0  0  0
  -15.1192   45.7821  -20.6351 N   0  0  0  0  0  0  0  0  0  0  0  0
  -14.7758   46.4194  -21.8811 C   0  0  0  0  0  0  0  0  0  0  0  0
  -16.4836   45.3525  -20.3099 C   0  0  1  0  0  0  0  0  0  0  0  0
  1  2  1  0
  2  3  1  0
  3  4  1  0
  4  5  1  0
  5  6  1  1
  5  7  1  0
  7  8  2  0
  8  9  1  0
  9 10  1  0
 10 11  1  0
 11 12  2  0
 11 13  1  0
 13 14  1  0
 14 15  2  0
 15 16  1  0
 16 17  2  0
 17 18  1  0
 18 19  2  0
  9 20  2  0
 20 21  1  0
 21 22  2  0
 22 23  1  0
 23 24  1  0
 25 23  1  6
 25  2  1  0
 25  5  1  0
 22  7  1  0
 19 14  1  0
M  END
$$$$
