
     RDKit          3D

 23 25  0  0  0  0  0  0  0  0999 V2000
  -19.4554   42.9731  -22.2685 O   0  0  0  0  0  0  0  0  0  0  0  0
  -18.3973   42.6771  -21.6620 C   0  0  0  0  0  0  0  0  0  0  0  0
  -17.7436   43.7622  -20.9812 N   0  0  0  0  0  0  0  0  0  0  0  0
  -18.3609   45.0538  -20.8614 C   0  0  0  0  0  0  0  0  0  0  0  0
  -17.8785   45.9971  -21.9117 C   0  0  0  0  0  0  0  0  0  0  0  0
  -16.7512   46.8783  -21.3714 C   0  0  0  0  0  0  0  0  0  0  0  0
  -17.3678   47.8370  -20.4753 N   0  0  0  0  0  0  0  0  0  0  0  0
  -18.3805   47.1753  -19.6686 C   0  0  0  0  0  0  0  0  0  0  0  0
  -18.0637   45.6944  -19.5050 C   0  0  0  0  0  0  0  0  0  0  0  0
  -17.7712   41.3640  -21.5779 C   0  0  2  0  0  0  0  0  0  0  0  0
  -17.8144   40.8252  -23.0993 C   0  0  0  0  0  0  0  0  0  0  0  0
  -18.1550   39.3409  -23.0523 C   0  0  0  0  0  0  0  0  0  0  0  0
  -19.4478   38.9260  -22.4520 C   0  0  2  0  0  0  0  0  0  0  0  0
  -19.9214   40.2128  -21.6695 C   0  0  0  0  0  0  0  0  0  0  0  0
  -18.5456   40.2955  -21.0872 N   0  0  0  0  0  0  0  0  0  0  0  0
  -18.4915   39.1073  -20.3804 C   0  0  0  0  0  0  0  0  0  0  0  0
  -17.9788   38.8735  -19.2637 O   0  0  0  0  0  0  0  0  0  0  0  0
  -19.1832   38.1107  -21.2338 N   0  0  0  0  0  0  0  0  0  0  0  0
  -19.4697   36.8502  -20.9528 O   0  0  0  0  0  0  0  0  0  0  0  0
  -18.3352   35.7603  -21.5272 S   0  0  0  0  0  6  0  0  0  0  0  0
  -16.9382   36.1653  -21.1968 O   0  0  0  0  0  0  0  0  0  0  0  0
  -18.5930   34.4467  -20.8184 O   0  0  0  0  0  0  0  0  0  0  0  0
  -18.4465   35.5100  -23.1663 O   0  0  0  0  0  0  0  0  0  0  0  0
  1  2  2  0
  2  3  1  0
  3  4  1  0
  4  5  1  0
  5  6  1  0
  6  7  1  0
  7  8  1  0
  8  9  1  0
 10  2  1  6
 10 11  1  0
 11 12  1  0
 13 12  1  1
 13 14  1  0
 14 15  1  0
 15 16  1  0
 16 17  2  0
 16 18  1  0
 18 19  1  0
 19 20  1  0
 20 21  2  0
 20 22  2  0
 20 23  1  0
  9  4  1  0
 15 10  1  0
 18 13  1  0
M  END
$$$$
