
     RDKit          3D

  7  7  0  0  0  0  0  0  0  0999 V2000
  -19.6269   37.3136  -23.2960 N   0  0  0  0  0  0  0  0  0  0  0  0
  -19.4297   37.8212  -21.9870 C   0  0  2  0  0  0  0  0  0  0  0  0
  -18.2309   38.7730  -21.8921 C   0  0  0  0  0  0  0  0  0  0  0  0
  -18.0423   38.8127  -20.5141 O   0  0  0  0  0  0  0  0  0  0  0  0
  -18.2289   37.5644  -20.0499 N   0  0  0  0  0  0  0  0  0  0  0  0
  -18.9833   36.7973  -21.0030 C   0  0  0  0  0  0  0  0  0  0  0  0
  -19.1749   35.5738  -20.9527 O   0  0  0  0  0  0  0  0  0  0  0  0
  2  1  1  6
  2  3  1  0
  3  4  1  0
  4  5  1  0
  5  6  1  0
  6  7  2  0
  6  2  1  0
M  END
$$$$
