
     RDKit          3D

 24 24  0  0  0  0  0  0  0  0999 V2000
  -15.6879   48.0457  -19.6570 C   0  0  0  0  0  0  0  0  0  0  0  0
  -16.2258   47.2062  -20.6744 O   0  0  0  0  0  0  0  0  0  0  0  0
  -16.1393   45.8307  -20.4982 C   0  0  0  0  0  0  0  0  0  0  0  0
  -15.5664   45.2758  -19.4025 N   0  0  0  0  0  0  0  0  0  0  0  0
  -15.4826   43.9448  -19.2320 C   0  0  0  0  0  0  0  0  0  0  0  0
  -14.8410   43.3620  -18.0052 C   0  0  0  0  0  0  0  0  0  0  0  0
  -15.9934   43.1684  -20.1983 N   0  0  0  0  0  0  0  0  0  0  0  0
  -16.5747   43.6494  -21.3094 C   0  0  0  0  0  0  0  0  0  0  0  0
  -17.1098   42.8213  -22.3218 N   0  0  0  0  0  0  0  0  0  0  0  0
  -17.0522   41.4149  -22.2003 C   0  0  0  0  0  0  0  0  0  0  0  0
  -16.5128   40.9395  -21.1691 O   0  0  0  0  0  0  0  0  0  0  0  0
  -17.5600   40.5099  -23.1602 N   0  0  0  0  0  2  0  0  0  0  0  0
  -19.1839   39.9485  -23.0125 S   0  0  0  0  0  6  0  0  0  0  0  0
  -20.1412   41.1000  -23.0586 O   0  0  0  0  0  0  0  0  0  0  0  0
  -19.4822   39.0258  -24.1849 O   0  0  0  0  0  0  0  0  0  0  0  0
  -19.4289   39.0722  -21.5291 C   0  0  0  0  0  0  0  0  0  0  0  0
  -20.3623   39.5098  -20.5985 C   0  0  0  0  0  0  0  0  0  0  0  0
  -20.5552   38.8152  -19.4246 C   0  0  0  0  0  0  0  0  0  0  0  0
  -19.8055   37.6854  -19.1988 C   0  0  0  0  0  0  0  0  0  0  0  0
  -18.8723   37.2252  -20.1009 C   0  0  0  0  0  0  0  0  0  0  0  0
  -18.6854   37.9385  -21.2886 C   0  0  0  0  0  0  0  0  0  0  0  0
  -17.5257   37.4355  -22.4959 Cl  0  0  0  0  0  0  0  0  0  0  0  0
  -16.6312   44.9927  -21.4282 N   0  0  0  0  0  0  0  0  0  0  0  0
  -17.4716   42.0533  -20.4747 K   0  0  0  0  0 15  0  0  0  0  0  0
  1  2  1  0
  2  3  1  0
  3  4  2  0
  4  5  1  0
  5  6  1  0
  5  7  2  0
  7  8  1  0
  8  9  1  0
  9 10  1  0
 10 11  2  0
 10 12  1  0
 12 13  1  0
 13 14  2  0
 13 15  2  0
 13 16  1  0
 16 17  2  0
 17 18  1  0
 18 19  2  0
 19 20  1  0
 20 21  2  0
 21 22  1  0
  8 23  2  0
 23  3  1  0
 21 16  1  0
M  CHG  2  12  -1  24   1
M  END
$$$$
