
     RDKit          3D

 19 21  0  0  0  0  0  0  0  0999 V2000
  -10.9314   46.0371  -18.3441 N   0  0  0  0  0  0  0  0  0  0  0  0
  -11.9500   45.6590  -18.7830 C   0  0  0  0  0  0  0  0  0  0  0  0
  -13.2118   45.2171  -19.3196 C   0  0  0  0  0  0  0  0  0  0  0  0
  -13.3449   43.9786  -19.8938 C   0  0  0  0  0  0  0  0  0  0  0  0
  -14.5607   43.5805  -20.3988 C   0  0  0  0  0  0  0  0  0  0  0  0
  -15.6639   44.4043  -20.3424 C   0  0  0  0  0  0  0  0  0  0  0  0
  -16.8899   43.9791  -20.8619 O   0  0  0  0  0  0  0  0  0  0  0  0
  -17.4087   42.7341  -20.6426 C   0  0  0  0  0  0  0  0  0  0  0  0
  -17.9176   42.4352  -19.3931 C   0  0  0  0  0  0  0  0  0  0  0  0
  -18.4435   41.1734  -19.1699 C   0  0  0  0  0  0  0  0  0  0  0  0
  -18.4477   40.2446  -20.1977 C   0  0  0  0  0  0  0  0  0  0  0  0
  -17.9445   40.5325  -21.4431 C   0  0  0  0  0  0  0  0  0  0  0  0
  -17.4150   41.8059  -21.6637 C   0  0  0  0  0  0  0  0  0  0  0  0
  -18.1137   39.3354  -22.2891 C   0  0  0  0  0  0  0  0  0  0  0  0
  -18.1534   38.2366  -21.4413 O   0  0  0  0  0  0  0  0  0  0  0  0
  -18.9453   38.7490  -20.2941 B   0  0  0  0  0  0  0  0  0  0  0  0
  -19.4656   38.0017  -19.1619 O   0  0  0  0  0  0  0  0  0  0  0  0
  -15.5359   45.6505  -19.7661 C   0  0  0  0  0  0  0  0  0  0  0  0
  -14.3200   46.0508  -19.2601 C   0  0  0  0  0  0  0  0  0  0  0  0
  1  2  3  0
  2  3  1  0
  3  4  2  0
  4  5  1  0
  5  6  2  0
  6  7  1  0
  7  8  1  0
  8  9  2  0
  9 10  1  0
 10 11  2  0
 11 12  1  0
 12 13  2  0
 12 14  1  0
 14 15  1  0
 15 16  1  0
 16 17  1  0
  6 18  1  0
 18 19  2  0
 19  3  1  0
 13  8  1  0
 16 11  1  0
M  END
$$$$
