
     RDKit          3D

 32 36  0  0  0  0  0  0  0  0999 V2000
  -27.2507   11.9871  -19.2497 C   0  0  0  0  0  0  0  0  0  0  0  0
  -28.7147   11.9276  -19.4953 C   0  0  0  0  0  0  0  0  0  0  0  0
  -29.5181   11.2148  -18.6504 C   0  0  0  0  0  0  0  0  0  0  0  0
  -30.8879   11.1094  -18.8114 C   0  0  0  0  0  0  0  0  0  0  0  0
  -31.4044   11.7834  -19.9022 C   0  0  0  0  0  0  0  0  0  0  0  0
  -30.6226   12.5068  -20.7672 C   0  0  0  0  0  0  0  0  0  0  0  0
  -29.2629   12.5864  -20.5709 C   0  0  0  0  0  0  0  0  0  0  0  0
  -28.4272   13.3415  -21.4630 N   0  0  0  0  0  0  0  0  0  0  0  0
  -27.7527   12.7782  -22.5686 C   0  0  0  0  0  0  0  0  0  0  0  0
  -27.8778   11.5543  -22.7922 O   0  0  0  0  0  0  0  0  0  0  0  0
  -26.9035   13.5780  -23.4734 C   0  0  0  0  0  0  0  0  0  0  0  0
  -26.2483   12.9964  -24.5316 C   0  0  0  0  0  0  0  0  0  0  0  0
  -25.4616   13.7581  -25.3359 C   0  0  0  0  0  0  0  0  0  0  0  0
  -25.3288   15.1101  -25.0824 C   0  0  0  0  0  0  0  0  0  0  0  0
  -25.9665   15.7364  -24.0377 C   0  0  0  0  0  0  0  0  0  0  0  0
  -25.8073   17.0677  -23.8090 C   0  0  0  0  0  0  0  0  0  0  0  0
  -25.0600   17.9554  -24.7097 C   0  0  0  0  0  0  0  0  0  0  0  0
  -25.0552   19.3980  -24.3405 C   0  0  0  0  0  0  0  0  0  0  0  0
  -23.8252   20.0536  -23.8878 C   0  0  0  0  0  0  0  0  0  0  0  0
  -23.6964   21.4043  -24.0983 O   0  0  0  0  0  0  0  0  0  0  0  0
  -26.4669   17.6543  -22.7130 C   0  0  0  0  0  0  0  0  0  0  0  0
  -27.2507   16.8716  -21.9120 C   0  0  0  0  0  0  0  0  0  0  0  0
  -27.4118   15.5293  -22.1471 C   0  0  0  0  0  0  0  0  0  0  0  0
  -26.7749   14.9325  -23.2135 C   0  0  0  0  0  0  0  0  0  0  0  0
  -28.2654   14.7309  -21.2356 C   0  0  0  0  0  0  0  0  0  0  0  0
  -28.8254   15.3138  -20.2799 O   0  0  0  0  0  0  0  0  0  0  0  0
  -32.7447   11.5273  -19.8366 N   0  0  0  0  0  0  0  0  0  0  0  0
  -33.7157   12.0400  -20.7968 C   0  0  0  0  0  0  0  0  0  0  0  0
  -33.0060   10.7469  -18.7688 C   0  0  0  0  0  0  0  0  0  0  0  0
  -34.1410   10.3374  -18.4348 O   0  0  0  0  0  0  0  0  0  0  0  0
  -31.8673   10.4794  -18.1238 N   0  0  0  0  0  0  0  0  0  0  0  0
  -31.6407    9.6830  -16.9212 C   0  0  0  0  0  0  0  0  0  0  0  0
  1  2  1  0
  2  3  2  0
  3  4  1  0
  4  5  2  0
  5  6  1  0
  6  7  2  0
  7  8  1  0
  8  9  1  0
  9 10  2  0
  9 11  1  0
 11 12  2  0
 12 13  1  0
 13 14  2  0
 14 15  1  0
 15 16  2  0
 16 17  1  0
 17 18  1  0
 18 19  1  0
 19 20  1  0
 16 21  1  0
 21 22  2  0
 22 23  1  0
 23 24  2  0
 23 25  1  0
 25 26  2  0
  5 27  1  0
 27 28  1  0
 27 29  1  0
 29 30  2  0
 29 31  1  0
 31 32  1  0
  7  2  1  0
 25  8  1  0
 31  4  1  0
 24 11  1  0
 24 15  1  0
M  END
$$$$
