
     RDKit          3D

 45 47  0  0  0  0  0  0  0  0999 V2000
  -19.6506   49.4792  -24.6902 C   0  0  0  0  0  0  0  0  0  0  0  0
  -19.1792   49.4712  -23.3814 O   0  0  0  0  0  0  0  0  0  0  0  0
  -18.9741   48.1774  -22.9061 C   0  0  2  0  0  0  0  0  0  0  0  0
  -19.8811   47.9993  -21.7106 C   0  0  1  0  0  0  0  0  0  0  0  0
  -21.0284   47.2782  -22.1797 O   0  0  0  0  0  0  0  0  0  0  0  0
  -22.3158   47.7207  -22.0737 C   0  0  0  0  0  0  0  0  0  0  0  0
  -23.3523   46.8943  -22.5850 N   0  0  0  0  0  0  0  0  0  0  0  0
  -22.5214   48.8348  -21.5305 O   0  0  0  0  0  0  0  0  0  0  0  0
  -19.2344   47.0660  -20.6865 C   0  0  1  0  0  0  0  0  0  0  0  0
  -20.2419   46.3439  -20.0548 O   0  0  0  0  0  0  0  0  0  0  0  0
  -18.3609   46.1242  -21.5378 C   0  0  2  0  0  0  0  0  0  0  0  0
  -17.9674   45.0080  -20.8411 O   0  0  0  0  0  0  0  0  0  0  0  0
  -18.2696   43.7296  -21.1617 C   0  0  0  0  0  0  0  0  0  0  0  0
  -19.0243   43.3916  -22.2425 C   0  0  0  0  0  0  0  0  0  0  0  0
  -19.2976   42.0420  -22.5139 C   0  0  0  0  0  0  0  0  0  0  0  0
  -18.8293   41.0284  -21.7239 C   0  0  0  0  0  0  0  0  0  0  0  0
  -19.1071   39.7115  -22.0061 C   0  0  0  0  0  0  0  0  0  0  0  0
  -19.8736   39.3620  -23.1027 O   0  0  0  0  0  0  0  0  0  0  0  0
  -18.6121   38.7176  -21.1796 C   0  0  0  0  0  0  0  0  0  0  0  0
  -18.8707   37.3363  -21.4277 N   0  0  0  0  0  0  0  0  0  0  0  0
  -19.9737   36.6433  -20.8979 C   0  0  0  0  0  0  0  0  0  0  0  0
  -20.7864   37.2487  -20.1655 O   0  0  0  0  0  0  0  0  0  0  0  0
  -20.1982   35.2243  -21.1816 C   0  0  0  0  0  0  0  0  0  0  0  0
  -21.2901   34.5643  -20.6067 C   0  0  0  0  0  0  0  0  0  0  0  0
  -21.5177   33.2336  -20.8626 C   0  0  0  0  0  0  0  0  0  0  0  0
  -20.6717   32.5369  -21.6886 C   0  0  0  0  0  0  0  0  0  0  0  0
  -20.9549   31.1832  -21.9118 O   0  0  0  0  0  1  0  0  0  0  0  0
  -19.5798   33.1357  -22.2831 C   0  0  0  0  0  0  0  0  0  0  0  0
  -18.6576   32.3902  -23.1791 C   0  0  0  0  0  0  0  0  0  0  0  0
  -19.2360   32.1594  -24.5142 C   0  0  0  0  0  0  0  0  0  0  0  0
  -18.6503   32.6391  -25.5906 C   0  0  0  0  0  0  0  0  0  0  0  0
  -17.4011   33.4187  -25.4792 C   0  0  0  0  0  0  0  0  0  0  0  0
  -19.2510   32.3939  -26.9199 C   0  0  0  0  0  0  0  0  0  0  0  0
  -19.3798   34.4849  -22.0015 C   0  0  0  0  0  0  0  0  0  0  0  0
  -17.8539   39.1241  -20.1000 C   0  0  0  0  0  0  0  0  0  0  0  0
  -17.3858   38.2234  -19.3218 O   0  0  0  0  0  0  0  0  0  0  0  0
  -17.6194   40.3917  -19.8769 O   0  0  0  0  0  0  0  0  0  0  0  0
  -18.0612   41.3720  -20.6240 C   0  0  0  0  0  0  0  0  0  0  0  0
  -17.7897   42.6960  -20.3525 C   0  0  0  0  0  0  0  0  0  0  0  0
  -16.9611   43.0274  -19.1598 C   0  0  0  0  0  0  0  0  0  0  0  0
  -17.2323   46.8866  -21.8397 O   0  0  0  0  0  0  0  0  0  0  0  0
  -17.5315   47.9973  -22.6075 C   0  0  0  0  0  0  0  0  0  0  0  0
  -16.9022   49.2058  -21.9495 C   0  0  0  0  0  0  0  0  0  0  0  0
  -16.8010   47.8091  -23.9403 C   0  0  0  0  0  0  0  0  0  0  0  0
  -19.0762   41.2668  -22.4269 Na  0  0  0  0  0 15  0  0  0  0  0  0
  1  2  1  0
  3  2  1  1
  3  4  1  0
  4  5  1  6
  5  6  1  0
  6  7  1  0
  6  8  2  0
  4  9  1  0
  9 10  1  6
  9 11  1  0
 11 12  1  1
 12 13  1  0
 13 14  2  0
 14 15  1  0
 15 16  2  0
 16 17  1  0
 17 18  1  0
 17 19  2  0
 19 20  1  0
 20 21  1  0
 21 22  2  0
 21 23  1  0
 23 24  2  0
 24 25  1  0
 25 26  2  0
 26 27  1  0
 26 28  1  0
 28 29  1  0
 29 30  1  0
 30 31  2  3
 31 32  1  0
 31 33  1  0
 28 34  2  0
 19 35  1  0
 35 36  2  0
 35 37  1  0
 37 38  1  0
 38 39  2  0
 39 40  1  0
 11 41  1  0
 41 42  1  0
 42 43  1  0
 42 44  1  0
 42  3  1  0
 39 13  1  0
 38 16  1  0
 34 23  1  0
M  CHG  2  27  -1  45   1
M  END
$$$$
