
     RDKit          3D

 26 28  0  0  0  0  0  0  0  0999 V2000
  -16.0601   -3.9958  -37.3101 C   0  0  0  0  0  0  0  0  0  0  0  0
  -16.8541   -2.9301  -37.7229 O   0  0  0  0  0  0  0  0  0  0  0  0
  -17.2050   -1.8340  -36.9438 C   0  0  0  0  0  0  0  0  0  0  0  0
  -16.4839   -1.4181  -35.8410 C   0  0  0  0  0  0  0  0  0  0  0  0
  -16.8436   -0.3377  -35.0806 C   0  0  0  0  0  0  0  0  0  0  0  0
  -16.0959    0.0965  -33.9331 C   0  0  0  0  0  0  0  0  0  0  0  0
  -14.8214    0.6227  -33.9914 C   0  0  0  0  0  0  0  0  0  0  0  0
  -14.1370    1.0261  -32.9109 N   0  0  0  0  0  0  0  0  0  0  0  0
  -12.7805    1.5676  -33.0436 C   0  0  0  0  0  0  0  0  0  0  0  0
  -14.7280    0.9112  -31.7121 C   0  0  0  0  0  0  0  0  0  0  0  0
  -14.0981    1.2838  -30.7037 O   0  0  0  0  0  0  0  0  0  0  0  0
  -15.9978    0.3947  -31.5907 C   0  0  0  0  0  0  0  0  0  0  0  0
  -16.5957    0.2868  -30.3468 C   0  0  0  0  0  0  0  0  0  0  0  0
  -17.8474   -0.2235  -30.2542 N   0  0  0  0  0  0  0  0  0  0  0  0
  -18.5396   -0.6342  -31.3301 C   0  0  0  0  0  0  0  0  0  0  0  0
  -17.9812   -0.5414  -32.5734 C   0  0  0  0  0  0  0  0  0  0  0  0
  -16.7081   -0.0237  -32.6936 C   0  0  0  0  0  0  0  0  0  0  0  0
  -17.9880    0.3757  -35.4360 C   0  0  0  0  0  0  0  0  0  0  0  0
  -18.3759    1.4592  -34.7001 O   0  0  0  0  0  0  0  0  0  0  0  0
  -19.3685    2.3904  -34.9903 C   0  0  0  0  0  0  0  0  0  0  0  0
  -18.7072   -0.0404  -36.5404 C   0  0  0  0  0  0  0  0  0  0  0  0
  -18.3334   -1.1317  -37.2953 C   0  0  0  0  0  0  0  0  0  0  0  0
  -19.1258   -1.5831  -38.4870 C   0  0  0  0  0  0  0  0  0  0  0  0
  -18.4255   -1.2250  -39.7159 N   0  0  0  0  0  0  0  0  0  0  0  0
  -17.5169   -0.1364  -39.3569 C   0  0  0  0  0  0  0  0  0  0  0  0
  -19.3741   -0.8031  -40.7424 C   0  0  0  0  0  0  0  0  0  0  0  0
  1  2  1  0
  2  3  1  0
  3  4  2  0
  4  5  1  0
  5  6  1  0
  6  7  2  0
  7  8  1  0
  8  9  1  0
  8 10  1  0
 10 11  2  0
 10 12  1  0
 12 13  2  0
 13 14  1  0
 14 15  2  0
 15 16  1  0
 16 17  2  0
  5 18  2  0
 18 19  1  0
 19 20  1  0
 18 21  1  0
 21 22  2  0
 22 23  1  0
 23 24  1  0
 24 25  1  0
 24 26  1  0
 22  3  1  0
 17  6  1  0
 17 12  1  0
M  END
$$$$
