
     RDKit          3D

 18 19  0  0  0  0  0  0  0  0999 V2000
  -29.2458   18.7623  -26.4595 N   0  0  0  0  0  0  0  0  0  0  0  0
  -29.9299   18.2540  -24.9799 S   0  0  0  0  0  6  0  0  0  0  0  0
  -30.4686   19.4499  -24.2152 O   0  0  0  0  0  0  0  0  0  0  0  0
  -31.0592   17.2839  -25.2073 O   0  0  0  0  0  0  0  0  0  0  0  0
  -28.7292   17.4632  -24.0105 C   0  0  0  0  0  0  0  0  0  0  0  0
  -27.5915   18.1492  -23.6814 C   0  0  0  0  0  0  0  0  0  0  0  0
  -26.6489   17.4883  -22.9039 C   0  0  0  0  0  0  0  0  0  0  0  0
  -26.7922   16.1949  -22.4502 C   0  0  0  0  0  0  0  0  0  0  0  0
  -25.9370   15.4772  -21.6992 O   0  0  0  0  0  0  0  0  0  0  0  0
  -24.7539   14.8396  -21.9271 C   0  0  0  0  0  0  0  0  0  0  0  0
  -24.2237   14.0013  -20.8191 C   0  0  0  0  0  0  0  0  0  0  0  0
  -24.3014   12.6069  -20.9758 C   0  0  0  0  0  0  0  0  0  0  0  0
  -23.8726   11.7382  -20.0016 C   0  0  0  0  0  0  0  0  0  0  0  0
  -23.3492   12.2537  -18.8324 C   0  0  0  0  0  0  0  0  0  0  0  0
  -23.2644   13.6169  -18.6586 C   0  0  0  0  0  0  0  0  0  0  0  0
  -23.6994   14.4780  -19.6461 C   0  0  0  0  0  0  0  0  0  0  0  0
  -27.9949   15.5429  -22.8278 C   0  0  0  0  0  0  0  0  0  0  0  0
  -28.9346   16.1614  -23.5860 C   0  0  0  0  0  0  0  0  0  0  0  0
  1  2  1  0
  2  3  2  0
  2  4  2  0
  2  5  1  0
  5  6  2  0
  6  7  1  0
  7  8  2  0
  8  9  1  0
  9 10  1  0
 10 11  1  0
 11 12  2  0
 12 13  1  0
 13 14  2  0
 14 15  1  0
 15 16  2  0
  8 17  1  0
 17 18  2  0
 18  5  1  0
 16 11  1  0
M  END
$$$$
