
     RDKit          3D

 32 36  0  0  0  0  0  0  0  0999 V2000
  -17.7389   37.4808  -20.7211 C   0  0  0  0  0  0  0  0  0  0  0  0
  -18.7963   37.6651  -21.7836 C   0  0  0  0  0  0  0  0  0  0  0  0
  -19.0359   36.3220  -22.4348 C   0  0  0  0  0  0  0  0  0  0  0  0
  -18.2838   38.5089  -22.7573 O   0  0  0  0  0  0  0  0  0  0  0  0
  -19.3479   39.2541  -23.2397 C   0  0  2  0  0  0  0  0  0  0  0  0
  -18.8764   40.7130  -23.3505 C   0  0  0  0  0  0  0  0  0  0  0  0
  -18.9289   41.0900  -21.9328 C   0  0  1  0  0  0  0  0  0  0  0  0
  -18.9466   42.5550  -21.5875 C   0  0  2  0  0  0  0  0  0  0  0  0
  -17.9333   43.3322  -22.3759 C   0  0  0  0  0  0  0  0  0  0  0  0
  -17.6583   44.7021  -21.8534 C   0  0  2  0  0  0  0  0  0  0  0  0
  -16.5336   45.2648  -22.4158 F   0  0  0  0  0  0  0  0  0  0  0  0
  -17.4781   44.6077  -20.3322 C   0  0  0  0  0  0  0  0  0  0  0  0
  -16.4046   45.1235  -19.8003 C   0  0  0  0  0  0  0  0  0  0  0  0
  -16.1320   45.0877  -18.3679 C   0  0  0  0  0  0  0  0  0  0  0  0
  -15.0990   45.5850  -17.8592 O   0  0  0  0  0  0  0  0  0  0  0  0
  -17.1563   44.4275  -17.5742 C   0  0  0  0  0  0  0  0  0  0  0  0
  -18.2271   43.9150  -18.1118 C   0  0  0  0  0  0  0  0  0  0  0  0
  -18.5165   43.9456  -19.5422 C   0  0  1  0  0  0  0  0  0  0  0  0
  -19.7959   44.7580  -19.7670 C   0  0  0  0  0  0  0  0  0  0  0  0
  -18.6889   42.5370  -20.0964 C   0  0  2  0  0  0  0  0  0  0  0  0
  -17.3872   41.9981  -19.9970 F   0  0  0  0  0  0  0  0  0  0  0  0
  -19.5798   41.6629  -19.3148 C   0  0  1  0  0  0  0  0  0  0  0  0
  -20.6578   42.4122  -18.8001 O   0  0  0  0  0  0  0  0  0  0  0  0
  -20.1340   40.4580  -19.9653 C   0  0  0  0  0  0  0  0  0  0  0  0
  -20.2648   40.5568  -21.4769 C   0  0  1  0  0  0  0  0  0  0  0  0
  -21.4335   41.4279  -21.7882 C   0  0  0  0  0  0  0  0  0  0  0  0
  -20.3641   39.2394  -22.1514 C   0  0  1  0  0  0  0  0  0  0  0  0
  -21.7131   38.8613  -22.6430 C   0  0  0  0  0  0  0  0  0  0  0  0
  -22.3979   39.8135  -23.0752 O   0  0  0  0  0  0  0  0  0  0  0  0
  -22.2969   37.5196  -22.6559 C   0  0  0  0  0  0  0  0  0  0  0  0
  -23.6030   37.5989  -23.1995 O   0  0  0  0  0  0  0  0  0  0  0  0
  -19.9187   38.2288  -21.2607 O   0  0  0  0  0  0  0  0  0  0  0  0
  1  2  1  0
  2  3  1  0
  2  4  1  0
  4  5  1  0
  5  6  1  1
  7  6  1  6
  7  8  1  0
  8  9  1  6
  9 10  1  0
 10 11  1  6
 10 12  1  0
 12 13  2  0
 13 14  1  0
 14 15  2  0
 14 16  1  0
 16 17  2  0
 17 18  1  0
 18 19  1  1
 18 20  1  0
 20 21  1  6
 20 22  1  0
 22 23  1  6
 22 24  1  0
 24 25  1  0
 25 26  1  1
 25 27  1  0
 27 28  1  6
 28 29  2  0
 28 30  1  0
 30 31  1  0
 27 32  1  0
 32  2  1  0
 27  5  1  0
 25  7  1  0
 20  8  1  0
 18 12  1  0
M  END
$$$$
