
     RDKit          3D

 38 42  0  0  0  0  0  0  0  0999 V2000
  -15.1415   45.9505  -19.5999 C   0  0  0  0  0  0  0  0  0  0  0  0
  -14.9225   44.5382  -19.1147 C   0  0  0  0  0  0  0  0  0  0  0  0
  -13.4594   44.2480  -19.1107 C   0  0  0  0  0  0  0  0  0  0  0  0
  -15.3826   44.5205  -17.6508 C   0  0  0  0  0  0  0  0  0  0  0  0
  -15.7725   43.5398  -19.8337 C   0  0  0  0  0  0  0  0  0  0  0  0
  -17.2572   43.7434  -19.6134 C   0  0  1  0  0  0  0  0  0  0  0  0
  -17.6519   45.1036  -19.6675 N   0  0  0  0  0  0  0  0  0  0  0  0
  -19.0495   45.1105  -20.0453 C   0  0  1  0  0  0  0  0  0  0  0  0
  -19.2842   46.3229  -20.8608 C   0  0  0  0  0  0  0  0  0  0  0  0
  -18.3251   46.8557  -21.4666 O   0  0  0  0  0  0  0  0  0  0  0  0
  -20.5560   46.9340  -21.0032 N   0  0  0  0  0  0  0  0  0  0  0  0
  -20.6696   48.2264  -21.6484 C   0  0  1  0  0  0  0  0  0  0  0  0
  -21.9953   48.2574  -22.3711 C   0  0  0  0  0  0  0  0  0  0  0  0
  -23.0451   48.6564  -21.3478 C   0  0  0  0  0  0  0  0  0  0  0  0
  -22.8569   50.1433  -21.0773 C   0  0  2  0  0  0  0  0  0  0  0  0
  -23.6289   50.8280  -22.0240 O   0  0  0  0  0  0  0  0  0  0  0  0
  -21.3961   50.5087  -21.1724 C   0  0  0  0  0  0  0  0  0  0  0  0
  -20.5970   49.3466  -20.6225 C   0  0  0  0  0  0  0  0  0  0  0  0
  -19.2719   43.8409  -20.8463 C   0  0  2  0  0  0  0  0  0  0  0  0
  -20.5137   43.1402  -20.5803 C   0  0  0  0  0  0  0  0  0  0  0  0
  -21.7026   43.7321  -20.9852 C   0  0  0  0  0  0  0  0  0  0  0  0
  -22.9031   43.1103  -20.7803 C   0  0  0  0  0  0  0  0  0  0  0  0
  -22.9295   41.8686  -20.1576 C   0  0  0  0  0  0  0  0  0  0  0  0
  -21.7437   41.2871  -19.7580 C   0  0  0  0  0  0  0  0  0  0  0  0
  -21.7683   39.7127  -18.9677 Cl  0  0  0  0  0  0  0  0  0  0  0  0
  -20.5260   41.9044  -19.9589 C   0  0  0  0  0  0  0  0  0  0  0  0
  -19.3729   41.2792  -19.5277 F   0  0  0  0  0  0  0  0  0  0  0  0
  -17.9770   43.1446  -20.8121 C   0  0  1  0  0  0  0  0  0  0  0  0
  -17.2351   43.5519  -22.0701 C   0  0  0  0  0  0  0  0  0  0  0  0
  -16.9371   44.6993  -22.4500 O   0  0  0  0  0  0  0  0  0  0  0  0
  -16.9392   42.3555  -22.7488 N   0  0  0  0  0  0  0  0  0  0  0  0
  -17.3724   41.2380  -21.9749 C   0  0  0  0  0  0  0  0  0  0  0  0
  -17.2127   39.9048  -22.2890 C   0  0  0  0  0  0  0  0  0  0  0  0
  -17.6521   38.9574  -21.3798 C   0  0  0  0  0  0  0  0  0  0  0  0
  -17.4643   37.2477  -21.7489 Cl  0  0  0  0  0  0  0  0  0  0  0  0
  -18.2292   39.3563  -20.2008 C   0  0  0  0  0  0  0  0  0  0  0  0
  -18.3696   40.7170  -19.9278 C   0  0  0  0  0  0  0  0  0  0  0  0
  -17.9515   41.6917  -20.7978 C   0  0  0  0  0  0  0  0  0  0  0  0
  1  2  1  0
  2  3  1  0
  2  4  1  0
  2  5  1  0
  6  5  1  6
  6  7  1  0
  7  8  1  0
  8  9  1  6
  9 10  2  0
  9 11  1  0
 12 11  1  1
 12 13  1  0
 13 14  1  0
 14 15  1  0
 15 16  1  6
 15 17  1  0
 17 18  1  0
  8 19  1  0
 19 20  1  1
 20 21  2  0
 21 22  1  0
 22 23  2  0
 23 24  1  0
 24 25  1  0
 24 26  2  0
 26 27  1  0
 19 28  1  0
 28 29  1  6
 29 30  2  0
 29 31  1  0
 31 32  1  0
 32 33  2  0
 33 34  1  0
 34 35  1  0
 34 36  2  0
 36 37  1  0
 37 38  2  0
 28  6  1  0
 38 32  1  0
 18 12  1  0
 26 20  1  0
 38 28  1  0
M  END
$$$$
