
     RDKit          3D

 28 31  0  0  0  0  0  0  0  0999 V2000
  -18.2858   42.5509  -19.5700 O   0  0  0  0  0  0  0  0  0  0  0  0
  -17.1933   42.5311  -20.1779 C   0  0  0  0  0  0  0  0  0  0  0  0
  -16.9239   41.3972  -20.9802 N   0  0  0  0  0  0  0  0  0  0  0  0
  -18.0108   40.4649  -21.3750 C   0  0  0  0  0  0  0  0  0  0  0  0
  -18.1711   40.6376  -22.8535 C   0  0  2  0  0  0  0  0  0  0  0  0
  -18.7791   41.9764  -22.9461 O   0  0  0  0  0  0  0  0  0  0  0  0
  -19.0568   39.7200  -23.5840 C   0  0  0  0  0  0  0  0  0  0  0  0
  -20.4273   39.7713  -23.3185 N   0  0  0  0  0  0  0  0  0  0  0  0
  -21.2802   40.6701  -24.0132 C   0  0  0  0  0  0  0  0  0  0  0  0
  -21.0877   40.5009  -25.5134 C   0  0  0  0  0  0  0  0  0  0  0  0
  -21.0760   39.0488  -25.8476 C   0  0  0  0  0  0  0  0  0  0  0  0
  -21.0972   38.7134  -27.2112 C   0  0  0  0  0  0  0  0  0  0  0  0
  -21.0891   37.3868  -27.5892 C   0  0  0  0  0  0  0  0  0  0  0  0
  -21.0597   36.4155  -26.6009 C   0  0  0  0  0  0  0  0  0  0  0  0
  -21.0393   36.7684  -25.2698 C   0  0  0  0  0  0  0  0  0  0  0  0
  -21.0472   38.0966  -24.8772 C   0  0  0  0  0  0  0  0  0  0  0  0
  -21.0258   38.4049  -23.4413 C   0  0  0  0  0  0  0  0  0  0  0  0
  -16.2546   43.6470  -20.0460 C   0  0  0  0  0  0  0  0  0  0  0  0
  -14.8973   43.4486  -19.9305 C   0  0  0  0  0  0  0  0  0  0  0  0
  -14.0440   44.5451  -19.8143 C   0  0  0  0  0  0  0  0  0  0  0  0
  -14.5930   45.7588  -19.8206 N   0  0  0  0  0  0  0  0  0  0  0  0
  -15.9072   46.0078  -19.9303 C   0  0  0  0  0  0  0  0  0  0  0  0
  -16.3974   47.3535  -19.9309 N   0  0  0  0  0  0  0  0  0  0  0  0
  -17.7995   47.5575  -20.1900 C   0  0  0  0  0  0  0  0  0  0  0  0
  -18.0914   48.1446  -21.5530 C   0  0  0  0  0  0  0  0  0  0  0  0
  -19.0879   49.0808  -20.8588 C   0  0  0  0  0  0  0  0  0  0  0  0
  -18.2892   48.8513  -19.5770 C   0  0  0  0  0  0  0  0  0  0  0  0
  -16.7701   44.9427  -20.0461 C   0  0  0  0  0  0  0  0  0  0  0  0
  1  2  2  0
  2  3  1  0
  3  4  1  0
  4  5  1  0
  5  6  1  1
  5  7  1  0
  7  8  1  0
  8  9  1  0
  9 10  1  0
 10 11  1  0
 11 12  2  0
 12 13  1  0
 13 14  2  0
 14 15  1  0
 15 16  2  0
 16 17  1  0
  2 18  1  0
 18 19  2  0
 19 20  1  0
 20 21  2  0
 21 22  1  0
 22 23  1  0
 23 24  1  0
 24 25  1  0
 25 26  1  0
 26 27  1  0
 22 28  2  0
 17  8  1  0
 28 18  1  0
 16 11  1  0
 27 24  1  0
M  END
$$$$
