
     RDKit          3D

 23 24  0  0  0  0  0  0  0  0999 V2000
  -21.2446   19.4497  -28.3546 C   0  0  0  0  0  0  0  0  0  0  0  0
  -20.2676   18.9525  -29.2290 O   0  0  0  0  0  0  0  0  0  0  0  0
  -20.2328   17.6777  -29.5741 N   0  0  0  0  0  0  0  0  0  0  0  0
  -19.4881   17.0636  -30.4836 C   0  0  0  0  0  0  0  0  0  0  0  0
  -18.3573   17.8637  -30.9662 C   0  0  0  0  0  0  0  0  0  0  0  0
  -18.0142   18.0357  -32.1200 O   0  0  0  0  0  0  0  0  0  0  0  0
  -17.5736   18.5126  -29.9642 O   0  0  0  0  0  0  0  0  0  0  0  0
  -16.2958   18.9831  -30.4040 C   0  0  0  0  0  0  0  0  0  0  0  0
  -19.7109   15.6471  -30.6471 C   0  0  0  0  0  0  0  0  0  0  0  0
  -20.7581   15.1820  -31.4807 C   0  0  0  0  0  0  0  0  0  0  0  0
  -21.0287   13.8560  -31.7157 C   0  0  0  0  0  0  0  0  0  0  0  0
  -20.2562   12.9051  -31.1194 C   0  0  0  0  0  0  0  0  0  0  0  0
  -19.2223   13.2548  -30.3064 C   0  0  0  0  0  0  0  0  0  0  0  0
  -18.9783   14.6458  -30.1017 C   0  0  0  0  0  0  0  0  0  0  0  0
  -17.5628   14.8793  -29.5868 C   0  0  0  0  0  0  0  0  0  0  0  0
  -16.7115   14.2854  -30.6363 O   0  0  0  0  0  0  0  0  0  0  0  0
  -15.4760   13.7670  -30.3799 C   0  0  0  0  0  0  0  0  0  0  0  0
  -15.1480   13.0035  -29.2858 C   0  0  0  0  0  0  0  0  0  0  0  0
  -13.8948   12.4803  -29.0452 C   0  0  0  0  0  0  0  0  0  0  0  0
  -12.9067   12.7557  -29.9843 C   0  0  0  0  0  0  0  0  0  0  0  0
  -13.2275   13.5288  -31.0943 C   0  0  0  0  0  0  0  0  0  0  0  0
  -14.4754   14.0475  -31.3295 C   0  0  0  0  0  0  0  0  0  0  0  0
  -14.7895   14.8926  -32.5089 C   0  0  0  0  0  0  0  0  0  0  0  0
  1  2  1  0
  2  3  1  0
  3  4  2  0
  4  5  1  0
  5  6  2  0
  5  7  1  0
  7  8  1  0
  4  9  1  0
  9 10  2  0
 10 11  1  0
 11 12  2  0
 12 13  1  0
 13 14  2  0
 14 15  1  0
 15 16  1  0
 16 17  1  0
 17 18  2  0
 18 19  1  0
 19 20  2  0
 20 21  1  0
 21 22  2  0
 22 23  1  0
 14  9  1  0
 22 17  1  0
M  END
$$$$
