
     RDKit          3D

 28 32  0  0  0  0  0  0  0  0999 V2000
  -18.7337   44.5608  -21.6798 O   0  0  0  0  0  0  0  0  0  0  0  0
  -18.1456   43.6685  -20.9650 C   0  0  0  0  0  0  0  0  0  0  0  0
  -16.9088   44.0105  -20.3798 C   0  0  0  0  0  0  0  0  0  0  0  0
  -15.6150   43.9971  -20.8678 C   0  0  0  0  0  0  0  0  0  0  0  0
  -14.6038   44.4166  -20.1152 C   0  0  0  0  0  0  0  0  0  0  0  0
  -14.8654   44.8638  -18.8418 C   0  0  0  0  0  0  0  0  0  0  0  0
  -16.6519   44.6847  -18.6838 S   0  0  0  0  0  0  0  0  0  0  0  0
  -13.9942   45.4112  -17.7539 C   0  0  0  0  0  0  0  0  0  0  0  0
  -12.8069   46.1388  -18.3751 C   0  0  0  0  0  0  0  0  0  0  0  0
  -13.1910   46.7429  -19.7042 C   0  0  0  0  0  0  0  0  0  0  0  0
  -12.8439   45.8941  -20.8873 C   0  0  0  0  0  0  0  0  0  0  0  0
  -13.1475   44.4354  -20.6183 C   0  0  0  0  0  0  0  0  0  0  0  0
  -18.7658   42.3789  -20.7985 N   0  0  0  0  0  0  0  0  0  0  0  0
  -20.0036   42.1196  -21.4593 C   0  0  0  0  0  0  0  0  0  0  0  0
  -20.5481   40.7851  -21.0029 C   0  0  0  0  0  0  0  0  0  0  0  0
  -19.4167   39.7523  -21.1836 C   0  0  0  0  0  0  0  0  0  0  0  0
  -19.9978   38.4872  -21.4091 N   0  0  0  0  0  0  0  0  0  0  0  0
  -19.3520   37.3557  -20.9821 C   0  0  0  0  0  0  0  0  0  0  0  0
  -18.2520   37.2766  -20.3885 O   0  0  0  0  0  0  0  0  0  0  0  0
  -20.0808   36.2951  -21.2913 N   0  0  0  0  0  0  0  0  0  0  0  0
  -21.1855   36.7248  -21.9096 C   0  0  0  0  0  0  0  0  0  0  0  0
  -22.2606   36.0339  -22.4229 C   0  0  0  0  0  0  0  0  0  0  0  0
  -23.2929   36.7336  -23.0152 C   0  0  0  0  0  0  0  0  0  0  0  0
  -23.2492   38.1140  -23.0931 C   0  0  0  0  0  0  0  0  0  0  0  0
  -22.1758   38.8054  -22.5805 C   0  0  0  0  0  0  0  0  0  0  0  0
  -21.1536   38.1076  -21.9942 C   0  0  0  0  0  0  0  0  0  0  0  0
  -18.5140   39.9832  -20.0578 C   0  0  0  0  0  0  0  0  0  0  0  0
  -18.1002   41.4141  -19.9683 C   0  0  0  0  0  0  0  0  0  0  0  0
  1  2  2  0
  2  3  1  0
  3  4  2  0
  4  5  1  0
  5  6  2  0
  6  7  1  0
  6  8  1  0
  8  9  1  0
  9 10  1  0
 10 11  1  0
 11 12  1  0
  2 13  1  0
 13 14  1  0
 14 15  1  0
 15 16  1  0
 16 17  1  0
 17 18  1  0
 18 19  2  0
 18 20  1  0
 20 21  1  0
 21 22  2  0
 22 23  1  0
 23 24  2  0
 24 25  1  0
 25 26  2  0
 16 27  1  0
 27 28  1  0
  7  3  1  0
 28 13  1  0
 12  5  1  0
 26 17  1  0
 26 21  1  0
M  END
$$$$
