
     RDKit          3D

 38 40  0  0  0  0  0  0  0  0999 V2000
  -31.4772    4.7752  -28.7368 C   0  0  0  0  0  0  0  0  0  0  0  0
  -30.2325    4.0003  -29.0105 C   0  0  0  0  0  0  0  0  0  0  0  0
  -29.9648    2.8544  -28.3317 C   0  0  0  0  0  0  0  0  0  0  0  0
  -28.7994    2.1311  -28.5850 C   0  0  0  0  0  0  0  0  0  0  0  0
  -27.8655    2.5058  -29.5063 C   0  0  0  0  0  0  0  0  0  0  0  0
  -26.6576    1.8209  -29.8439 C   0  0  0  0  0  0  0  0  0  0  0  0
  -26.0117    2.4228  -30.8323 O   0  0  0  0  0  0  0  0  0  0  0  0
  -25.9743    0.6892  -29.4225 N   0  0  0  0  0  0  0  0  0  0  0  0
  -26.3940   -0.1521  -28.3509 C   0  0  0  0  0  0  0  0  0  0  0  0
  -25.8912    0.2616  -27.0072 C   0  0  0  0  0  0  0  0  0  0  0  0
  -26.2430    1.5993  -26.4906 C   0  0  0  0  0  0  0  0  0  0  0  0
  -25.5410    1.7272  -25.1850 N   0  0  0  0  0  0  0  0  0  0  0  0
  -24.6811    0.3605  -30.1145 C   0  0  0  0  0  0  0  0  0  0  0  0
  -23.5940   -0.0094  -29.2473 C   0  0  0  0  0  0  0  0  0  0  0  0
  -23.4994   -1.2676  -28.7900 O   0  0  0  0  0  0  0  0  0  0  0  0
  -22.5917   -1.7268  -28.0132 C   0  0  0  0  0  0  0  0  0  0  0  0
  -22.5753   -3.0547  -27.5902 C   0  0  0  0  0  0  0  0  0  0  0  0
  -21.5706   -3.4789  -26.7574 C   0  0  0  0  0  0  0  0  0  0  0  0
  -21.5701   -5.1604  -26.2362 Cl  0  0  0  0  0  0  0  0  0  0  0  0
  -20.5520   -2.6414  -26.3069 C   0  0  0  0  0  0  0  0  0  0  0  0
  -20.5683   -1.3332  -26.7242 C   0  0  0  0  0  0  0  0  0  0  0  0
  -21.5933   -0.8941  -27.5749 C   0  0  0  0  0  0  0  0  0  0  0  0
  -21.6167    0.4215  -28.0018 C   0  0  0  0  0  0  0  0  0  0  0  0
  -20.6953    1.1689  -27.5897 O   0  0  0  0  0  0  0  0  0  0  0  0
  -22.6316    0.8802  -28.8552 C   0  0  0  0  0  0  0  0  0  0  0  0
  -22.5054    2.2750  -29.3035 C   0  0  0  0  0  0  0  0  0  0  0  0
  -21.5828    2.4102  -30.4507 C   0  0  0  0  0  0  0  0  0  0  0  0
  -20.2774    2.8763  -30.2287 C   0  0  0  0  0  0  0  0  0  0  0  0
  -19.4097    3.0098  -31.2786 C   0  0  0  0  0  0  0  0  0  0  0  0
  -19.7503    2.7064  -32.5775 C   0  0  0  0  0  0  0  0  0  0  0  0
  -21.0165    2.2501  -32.8246 C   0  0  0  0  0  0  0  0  0  0  0  0
  -21.8966    2.1174  -31.7405 C   0  0  0  0  0  0  0  0  0  0  0  0
  -24.9194   -0.6462  -31.2365 C   0  0  0  0  0  0  0  0  0  0  0  0
  -23.6489   -1.0075  -31.9361 C   0  0  0  0  0  0  0  0  0  0  0  0
  -25.6375   -1.8861  -30.8693 C   0  0  0  0  0  0  0  0  0  0  0  0
  -28.1829    3.7096  -30.1948 C   0  0  0  0  0  0  0  0  0  0  0  0
  -29.3303    4.4158  -29.9413 C   0  0  0  0  0  0  0  0  0  0  0  0
  -25.2821    1.0806  -29.0296 Cl  0  0  0  0  0  0  0  0  0  0  0  0
  1  2  1  0
  2  3  2  0
  3  4  1  0
  4  5  2  0
  5  6  1  0
  6  7  2  0
  6  8  1  0
  8  9  1  0
  9 10  1  0
 10 11  1  0
 11 12  1  0
  8 13  1  0
 13 14  1  0
 14 15  1  0
 15 16  1  0
 16 17  2  0
 17 18  1  0
 18 19  1  0
 18 20  2  0
 20 21  1  0
 21 22  2  0
 22 23  1  0
 23 24  2  0
 23 25  1  0
 25 26  1  0
 26 27  1  0
 27 28  2  0
 28 29  1  0
 29 30  2  0
 30 31  1  0
 31 32  2  0
 13 33  1  0
 33 34  1  0
 33 35  1  0
  5 36  1  0
 36 37  2  0
 37  2  1  0
 25 14  2  0
 32 27  1  0
 22 16  1  0
M  END
$$$$
