
     RDKit          3D

 50 53  0  0  0  0  0  0  0  0999 V2000
  -19.8105   25.2656  -37.6421 C   0  0  0  0  0  0  0  0  0  0  0  0
  -18.8046   24.8600  -36.5892 C   0  0  0  0  0  0  0  0  0  0  0  0
  -17.4705   25.5662  -36.8487 C   0  0  0  0  0  0  0  0  0  0  0  0
  -18.5372   23.4212  -36.6030 C   0  0  0  0  0  0  0  0  0  0  0  0
  -18.2356   22.5036  -35.8467 N   0  0  0  0  0  0  0  0  0  0  0  0
  -18.0506   21.2637  -36.1058 C   0  0  0  0  0  0  0  0  0  0  0  0
  -17.6706   20.2122  -35.0792 C   0  0  0  0  0  0  0  0  0  0  0  0
  -18.8384   19.6509  -34.4782 N   0  0  0  0  0  0  0  0  0  0  0  0
  -19.3831   20.1728  -33.2353 C   0  0  0  0  0  0  0  0  0  0  0  0
  -19.5212   18.5465  -35.0784 C   0  0  0  0  0  0  0  0  0  0  0  0
  -18.8976   17.4544  -35.2882 O   0  0  0  0  0  0  0  0  0  0  0  0
  -20.8833   18.5879  -35.4677 N   0  0  0  0  0  0  0  0  0  0  0  0
  -21.4963   17.4534  -36.0851 C   0  0  2  0  0  0  0  0  0  0  0  0
  -21.1164   17.3270  -37.5237 C   0  0  0  0  0  0  0  0  0  0  0  0
  -21.4032   16.2767  -38.1514 O   0  0  0  0  0  0  0  0  0  0  0  0
  -20.4377   18.3692  -38.1944 N   0  0  0  0  0  0  0  0  0  0  0  0
  -19.9365   18.2406  -39.5900 C   0  0  1  0  0  0  0  0  0  0  0  0
  -20.7637   18.9984  -40.5152 C   0  0  0  0  0  0  0  0  0  0  0  0
  -21.9779   19.6675  -40.1068 C   0  0  0  0  0  0  0  0  0  0  0  0
  -22.4387   19.5553  -38.8218 C   0  0  0  0  0  0  0  0  0  0  0  0
  -23.6134   20.1679  -38.3611 C   0  0  0  0  0  0  0  0  0  0  0  0
  -24.3373   20.9174  -39.2402 C   0  0  0  0  0  0  0  0  0  0  0  0
  -23.8946   21.0457  -40.5372 C   0  0  0  0  0  0  0  0  0  0  0  0
  -22.7436   20.4440  -40.9850 C   0  0  0  0  0  0  0  0  0  0  0  0
  -18.4924   18.2926  -39.5345 C   0  0  0  0  0  0  0  0  0  0  0  0
  -17.6230   17.1223  -39.5106 C   0  0  2  0  0  0  0  0  0  0  0  0
  -17.5815   16.3538  -38.3685 O   0  0  0  0  0  0  0  0  0  0  0  0
  -16.2356   17.3020  -40.0565 C   0  0  2  0  0  0  0  0  0  0  0  0
  -15.1415   16.9974  -39.0667 C   0  0  0  0  0  0  0  0  0  0  0  0
  -13.8610   17.3119  -39.7494 C   0  0  0  0  0  0  0  0  0  0  0  0
  -13.9012   17.5930  -41.0957 C   0  0  0  0  0  0  0  0  0  0  0  0
  -12.7731   17.8995  -41.8250 C   0  0  0  0  0  0  0  0  0  0  0  0
  -11.5339   17.9315  -41.1940 C   0  0  0  0  0  0  0  0  0  0  0  0
  -11.5126   17.6474  -39.8460 C   0  0  0  0  0  0  0  0  0  0  0  0
  -12.6499   17.3422  -39.1289 C   0  0  0  0  0  0  0  0  0  0  0  0
  -16.0037   18.6459  -40.5445 N   0  0  0  0  0  0  0  0  0  0  0  0
  -16.4032   19.0808  -41.8526 C   0  0  0  0  0  0  0  0  0  0  0  0
  -16.8282   18.2514  -42.6846 O   0  0  0  0  0  0  0  0  0  0  0  0
  -16.3342   20.4087  -42.2342 O   0  0  0  0  0  0  0  0  0  0  0  0
  -16.7889   20.8912  -43.4852 C   0  0  0  0  0  0  0  0  0  0  0  0
  -18.2338   21.2065  -43.3498 C   0  0  0  0  0  0  0  0  0  0  0  0
  -19.2668   21.2160  -44.2334 C   0  0  0  0  0  0  0  0  0  0  0  0
  -20.4456   21.5492  -43.7898 N   0  0  0  0  0  0  0  0  0  0  0  0
  -20.7404   21.8587  -42.6590 C   0  0  0  0  0  0  0  0  0  0  0  0
  -19.0678   21.7113  -41.8239 S   0  0  0  0  0  0  0  0  0  0  0  0
  -22.9947   17.4771  -35.9641 C   0  0  0  0  0  0  0  0  0  0  0  0
  -23.6945   17.3193  -37.2721 C   0  0  0  0  0  0  0  0  0  0  0  0
  -23.4437   16.4140  -34.9650 C   0  0  0  0  0  0  0  0  0  0  0  0
  -18.2065   20.8639  -37.4271 C   0  0  0  0  0  0  0  0  0  0  0  0
  -18.6382   22.4591  -38.2090 S   0  0  0  0  0  0  0  0  0  0  0  0
  1  2  1  0
  2  3  1  0
  2  4  1  0
  4  5  2  0
  5  6  1  0
  6  7  1  0
  7  8  1  0
  8  9  1  0
  8 10  1  0
 10 11  2  0
 10 12  1  0
 13 12  1  6
 13 14  1  0
 14 15  2  0
 14 16  1  0
 16 17  1  0
 17 18  1  6
 18 19  1  0
 19 20  2  0
 20 21  1  0
 21 22  2  0
 22 23  1  0
 23 24  2  0
 17 25  1  0
 25 26  1  0
 26 27  1  1
 26 28  1  0
 28 29  1  1
 29 30  1  0
 30 31  2  0
 31 32  1  0
 32 33  2  0
 33 34  1  0
 34 35  2  0
 28 36  1  0
 36 37  1  0
 37 38  2  0
 37 39  1  0
 39 40  1  0
 40 41  1  0
 41 42  2  0
 42 43  1  0
 43 44  2  0
 44 45  1  0
 13 46  1  0
 46 47  1  0
 46 48  1  0
  6 49  2  0
 49 50  1  0
 50  4  1  0
 24 19  1  0
 35 30  1  0
 45 41  1  0
M  END
$$$$
