
     RDKit          3D

 35 37  0  0  0  0  0  0  0  0999 V2000
  -16.7228   14.2457  -30.1791 C   0  0  0  0  0  0  0  0  0  0  0  0
  -16.3265   15.1546  -31.2836 C   0  0  0  0  0  0  0  0  0  0  0  0
  -15.1650   15.8093  -31.4259 N   0  0  0  0  0  0  0  0  0  0  0  0
  -15.1522   16.5169  -32.5075 O   0  0  0  0  0  0  0  0  0  0  0  0
  -16.2969   16.3922  -33.1703 C   0  0  0  0  0  0  0  0  0  0  0  0
  -16.5994   17.0687  -34.4409 C   0  0  0  0  0  0  0  0  0  0  0  0
  -15.6796   17.9412  -34.9916 C   0  0  0  0  0  0  0  0  0  0  0  0
  -15.9205   18.5871  -36.1848 C   0  0  0  0  0  0  0  0  0  0  0  0
  -17.0894   18.3972  -36.8904 C   0  0  0  0  0  0  0  0  0  0  0  0
  -17.3486   19.0828  -38.1582 C   0  0  0  0  0  0  0  0  0  0  0  0
  -18.1248   18.4326  -39.1001 C   0  0  0  0  0  0  0  0  0  0  0  0
  -18.4072   19.0280  -40.3210 C   0  0  0  0  0  0  0  0  0  0  0  0
  -17.9221   20.2807  -40.6259 C   0  0  0  0  0  0  0  0  0  0  0  0
  -18.2152   20.9217  -41.9193 C   0  0  0  0  0  0  0  0  0  0  0  0
  -19.4641   21.7109  -41.8072 C   0  0  0  0  0  0  0  0  0  0  0  0
  -20.0947   21.7577  -40.7312 O   0  0  0  0  0  0  0  0  0  0  0  0
  -19.9470   22.4113  -42.9095 O   0  0  0  0  0  1  0  0  0  0  0  0
  -17.1426   20.9349  -39.6811 C   0  0  0  0  0  0  0  0  0  0  0  0
  -16.8778   20.3223  -38.4790 C   0  0  0  0  0  0  0  0  0  0  0  0
  -18.0120   17.5287  -36.3485 C   0  0  0  0  0  0  0  0  0  0  0  0
  -17.7640   16.8741  -35.1362 C   0  0  0  0  0  0  0  0  0  0  0  0
  -17.0595   15.5348  -32.4164 C   0  0  0  0  0  0  0  0  0  0  0  0
  -18.3709   15.0951  -32.6790 N   0  0  0  0  0  0  0  0  0  0  0  0
  -19.4760   15.8104  -32.1207 C   0  0  0  0  0  0  0  0  0  0  0  0
  -19.2968   16.8358  -31.3924 O   0  0  0  0  0  0  0  0  0  0  0  0
  -20.7968   15.4503  -32.3251 O   0  0  0  0  0  0  0  0  0  0  0  0
  -21.8659   16.1633  -31.7703 C   0  0  2  0  0  0  0  0  0  0  0  0
  -22.6513   15.3460  -30.7665 C   0  0  0  0  0  0  0  0  0  0  0  0
  -22.7739   16.7479  -32.7637 C   0  0  0  0  0  0  0  0  0  0  0  0
  -22.3373   17.4157  -33.8814 C   0  0  0  0  0  0  0  0  0  0  0  0
  -23.1940   17.9596  -34.8068 C   0  0  0  0  0  0  0  0  0  0  0  0
  -24.5509   17.8512  -34.6414 C   0  0  0  0  0  0  0  0  0  0  0  0
  -25.0232   17.1872  -33.5309 C   0  0  0  0  0  0  0  0  0  0  0  0
  -24.1339   16.6382  -32.5965 C   0  0  0  0  0  0  0  0  0  0  0  0
  -19.1431   17.5083  -35.0549 Na  0  0  0  0  0 15  0  0  0  0  0  0
  1  2  1  0
  2  3  2  0
  3  4  1  0
  4  5  1  0
  5  6  1  0
  6  7  2  0
  7  8  1  0
  8  9  2  0
  9 10  1  0
 10 11  2  0
 11 12  1  0
 12 13  2  0
 13 14  1  0
 14 15  1  0
 15 16  2  0
 15 17  1  0
 13 18  1  0
 18 19  2  0
  9 20  1  0
 20 21  2  0
  5 22  2  0
 22 23  1  0
 23 24  1  0
 24 25  2  0
 24 26  1  0
 26 27  1  0
 27 28  1  1
 27 29  1  0
 29 30  2  0
 30 31  1  0
 31 32  2  0
 32 33  1  0
 33 34  2  0
 22  2  1  0
 34 29  1  0
 21  6  1  0
 19 10  1  0
M  CHG  2  17  -1  35   1
M  END
$$$$
