
     RDKit          3D

 16 17  0  0  0  0  0  0  0  0999 V2000
  -15.8339   13.4628  -27.6424 O   0  0  0  0  0  0  0  0  0  0  0  0
  -15.2838   13.9320  -28.6644 C   0  0  0  0  0  0  0  0  0  0  0  0
  -13.8910   13.6904  -28.8129 N   0  0  0  0  0  0  0  0  0  0  0  0
  -13.1686   12.7452  -28.0117 C   0  0  0  0  0  0  0  0  0  0  0  0
  -13.2275   11.3401  -28.5364 C   0  0  0  0  0  0  0  0  0  0  0  0
  -12.5726   10.4419  -27.5059 C   0  0  0  0  0  0  0  0  0  0  0  0
  -11.8185   11.2030  -26.4645 C   0  0  0  0  0  0  0  0  0  0  0  0
  -10.9953   12.3281  -26.9936 C   0  0  0  0  0  0  0  0  0  0  0  0
  -11.7102   13.1645  -28.0008 C   0  0  0  0  0  0  0  0  0  0  0  0
  -16.0347   14.6572  -29.5995 N   0  0  0  0  0  0  0  0  0  0  0  0
  -17.3210   15.2677  -29.2842 C   0  0  0  0  0  0  0  0  0  0  0  0
  -18.4026   14.2719  -29.6624 C   0  0  0  0  0  0  0  0  0  0  0  0
  -18.5612   14.3053  -31.1806 C   0  0  0  0  0  0  0  0  0  0  0  0
  -19.3849   15.5259  -31.5228 C   0  0  0  0  0  0  0  0  0  0  0  0
  -18.9210   16.6473  -30.6283 C   0  0  0  0  0  0  0  0  0  0  0  0
  -17.4804   16.4670  -30.1979 C   0  0  0  0  0  0  0  0  0  0  0  0
  1  2  2  0
  2  3  1  0
  3  4  1  0
  4  5  1  0
  5  6  1  0
  6  7  1  0
  7  8  1  0
  8  9  1  0
  2 10  1  0
 10 11  1  0
 11 12  1  0
 12 13  1  0
 13 14  1  0
 14 15  1  0
 15 16  1  0
  9  4  1  0
 16 11  1  0
M  END
$$$$
