
     RDKit          3D

 20 21  0  0  0  0  0  0  0  0999 V2000
  -18.3257   40.6255  -25.3668 C   0  0  0  0  0  0  0  0  0  0  0  0
  -19.7677   40.6824  -24.8348 C   0  0  0  0  0  0  0  0  0  0  0  0
  -20.3039   42.0373  -25.2764 C   0  0  0  0  0  0  0  0  0  0  0  0
  -20.5829   39.6376  -25.5262 C   0  0  0  0  0  0  0  0  0  0  0  0
  -19.7738   40.6318  -23.3682 C   0  0  0  0  0  0  0  0  0  0  0  0
  -20.6843   41.2233  -22.7818 O   0  0  0  0  0  0  0  0  0  0  0  0
  -18.7498   39.9067  -22.5634 C   0  0  2  0  0  0  0  0  0  0  0  0
  -19.3274   38.9476  -21.7340 O   0  0  0  0  0  0  0  0  0  0  0  0
  -19.2853   37.5870  -21.8147 C   0  0  0  0  0  0  0  0  0  0  0  0
  -20.3827   36.8744  -21.3135 C   0  0  0  0  0  0  0  0  0  0  0  0
  -20.3818   35.5053  -21.3746 C   0  0  0  0  0  0  0  0  0  0  0  0
  -19.3182   34.8360  -21.9205 C   0  0  0  0  0  0  0  0  0  0  0  0
  -19.3484   33.0743  -21.9838 Cl  0  0  0  0  0  0  0  0  0  0  0  0
  -18.2558   35.5324  -22.4054 C   0  0  0  0  0  0  0  0  0  0  0  0
  -18.2354   36.9175  -22.3539 C   0  0  0  0  0  0  0  0  0  0  0  0
  -17.9618   40.8144  -21.7419 N   0  0  0  0  0  0  0  0  0  0  0  0
  -17.5523   40.6432  -20.4612 C   0  0  0  0  0  0  0  0  0  0  0  0
  -16.8468   41.7079  -20.0984 N   0  0  0  0  0  0  0  0  0  0  0  0
  -16.7975   42.5607  -21.1283 C   0  0  0  0  0  0  0  0  0  0  0  0
  -17.4968   41.9751  -22.1251 N   0  0  0  0  0  0  0  0  0  0  0  0
  1  2  1  0
  2  3  1  0
  2  4  1  0
  2  5  1  0
  5  6  2  0
  5  7  1  0
  7  8  1  1
  8  9  1  0
  9 10  2  0
 10 11  1  0
 11 12  2  0
 12 13  1  0
 12 14  1  0
 14 15  2  0
  7 16  1  0
 16 17  1  0
 17 18  2  0
 18 19  1  0
 19 20  2  0
 15  9  1  0
 20 16  1  0
M  END
$$$$
