
     RDKit          3D

 27 29  0  0  0  0  0  0  0  0999 V2000
  -18.3234   44.9032  -20.4056 C   0  0  0  0  0  0  0  0  0  0  0  0
  -18.0764   43.5311  -19.9461 N   0  0  0  0  0  0  0  0  0  0  0  0
  -17.7363   43.1466  -18.7148 C   0  0  0  0  0  0  0  0  0  0  0  0
  -17.5895   41.8116  -18.6484 N   0  0  0  0  0  0  0  0  0  0  0  0
  -17.8442   41.3338  -19.8746 C   0  0  0  0  0  0  0  0  0  0  0  0
  -17.8472   40.0594  -20.3908 C   0  0  0  0  0  0  0  0  0  0  0  0
  -17.5606   38.9764  -19.6531 F   0  0  0  0  0  0  0  0  0  0  0  0
  -18.1585   39.8596  -21.7361 C   0  0  0  0  0  0  0  0  0  0  0  0
  -18.1633   38.5709  -22.2802 N   0  0  0  0  0  0  0  0  0  0  0  0
  -19.0434   37.5159  -21.9244 C   0  0  0  0  0  0  0  0  0  0  0  0
  -20.0906   37.8091  -21.0401 C   0  0  0  0  0  0  0  0  0  0  0  0
  -20.9945   36.8456  -20.6524 C   0  0  0  0  0  0  0  0  0  0  0  0
  -20.9223   35.5467  -21.1083 C   0  0  0  0  0  0  0  0  0  0  0  0
  -22.1716   34.2121  -20.5729 Br  0  0  0  0  0  0  0  0  0  0  0  0
  -19.8925   35.2610  -21.9774 C   0  0  0  0  0  0  0  0  0  0  0  0
  -18.9675   36.2257  -22.3810 C   0  0  0  0  0  0  0  0  0  0  0  0
  -17.9766   35.8854  -23.2530 F   0  0  0  0  0  0  0  0  0  0  0  0
  -18.4661   40.9391  -22.5666 C   0  0  0  0  0  0  0  0  0  0  0  0
  -18.7432   40.7199  -23.9589 C   0  0  0  0  0  0  0  0  0  0  0  0
  -18.3063   39.6963  -24.5421 O   0  0  0  0  0  0  0  0  0  0  0  0
  -19.5033   41.6288  -24.7127 N   0  0  0  0  0  0  0  0  0  0  0  0
  -19.6531   41.5337  -26.0589 O   0  0  0  0  0  0  0  0  0  0  0  0
  -20.7563   42.3258  -26.3898 C   0  0  0  0  0  0  0  0  0  0  0  0
  -21.5975   41.6495  -27.4686 C   0  0  0  0  0  0  0  0  0  0  0  0
  -22.8623   42.2267  -27.5396 O   0  0  0  0  0  0  0  0  0  0  0  0
  -18.4608   42.2088  -22.0390 C   0  0  0  0  0  0  0  0  0  0  0  0
  -18.1491   42.4107  -20.6874 C   0  0  0  0  0  0  0  0  0  0  0  0
  1  2  1  0
  2  3  1  0
  3  4  2  0
  4  5  1  0
  5  6  2  0
  6  7  1  0
  6  8  1  0
  8  9  1  0
  9 10  1  0
 10 11  2  0
 11 12  1  0
 12 13  2  0
 13 14  1  0
 13 15  1  0
 15 16  2  0
 16 17  1  0
  8 18  2  0
 18 19  1  0
 19 20  2  0
 19 21  1  0
 21 22  1  0
 22 23  1  0
 23 24  1  0
 24 25  1  0
 18 26  1  0
 26 27  2  0
 27  2  1  0
 27  5  1  0
 16 10  1  0
M  END
$$$$
