
     RDKit          3D

 26 27  0  0  0  0  0  0  0  0999 V2000
    2.3052   28.0771  -22.2575 C   0  0  0  0  0  0  0  0  0  0  0  0
    1.6502   27.5450  -21.0258 C   0  0  0  0  0  0  0  0  0  0  0  0
    1.8478   26.0982  -20.8055 C   0  0  0  0  0  0  0  0  0  0  0  0
    2.9954   25.5792  -20.2682 C   0  0  0  0  0  0  0  0  0  0  0  0
    3.1171   24.1954  -20.0845 C   0  0  0  0  0  0  0  0  0  0  0  0
    2.1094   23.3318  -20.4305 C   0  0  0  0  0  0  0  0  0  0  0  0
    2.2187   21.9073  -20.2442 C   0  0  0  0  0  0  0  0  0  0  0  0
    1.2192   21.1690  -20.5503 O   0  0  0  0  0  0  0  0  0  0  0  0
    3.3451   21.2580  -19.7463 N   0  0  0  0  0  0  0  0  0  0  0  0
    3.4683   19.8860  -19.4839 N   0  0  0  0  0  0  0  0  0  0  0  0
    3.3367   18.9862  -20.5364 C   0  0  0  0  0  0  0  0  0  0  0  0
    4.3308   18.1701  -20.7063 O   0  0  0  0  0  0  0  0  0  0  0  0
    2.2270   18.8433  -21.4704 C   0  0  0  0  0  0  0  0  0  0  0  0
    1.0971   18.0938  -21.1540 C   0  0  0  0  0  0  0  0  0  0  0  0
    0.0302   17.9654  -22.0235 C   0  0  0  0  0  0  0  0  0  0  0  0
   -1.1772   17.1626  -21.6821 C   0  0  0  0  0  0  0  0  0  0  0  0
    0.0460   18.5839  -23.2549 C   0  0  0  0  0  0  0  0  0  0  0  0
    1.1568   19.3263  -23.5781 C   0  0  0  0  0  0  0  0  0  0  0  0
    1.1606   19.9819  -24.9177 C   0  0  0  0  0  0  0  0  0  0  0  0
    2.2282   19.4561  -22.7053 C   0  0  0  0  0  0  0  0  0  0  0  0
    3.7001   19.4795  -18.1348 C   0  0  0  0  0  0  0  0  0  0  0  0
    3.9571   17.9622  -18.1572 C   0  0  0  0  0  0  0  0  0  0  0  0
    4.8312   20.1993  -17.4581 C   0  0  0  0  0  0  0  0  0  0  0  0
    2.4594   19.6973  -17.2682 C   0  0  0  0  0  0  0  0  0  0  0  0
    0.9630   23.8746  -20.9696 C   0  0  0  0  0  0  0  0  0  0  0  0
    0.8290   25.2435  -21.1571 C   0  0  0  0  0  0  0  0  0  0  0  0
  1  2  1  0
  2  3  1  0
  3  4  2  0
  4  5  1  0
  5  6  2  0
  6  7  1  0
  7  8  2  0
  7  9  1  0
  9 10  1  0
 10 11  1  0
 11 12  2  0
 11 13  1  0
 13 14  2  0
 14 15  1  0
 15 16  1  0
 15 17  2  0
 17 18  1  0
 18 19  1  0
 18 20  2  0
 10 21  1  0
 21 22  1  0
 21 23  1  0
 21 24  1  0
  6 25  1  0
 25 26  2  0
 26  3  1  0
 20 13  1  0
M  END
$$$$
