
     RDKit          3D

  9  7  0  0  0  0  0  0  0  0999 V2000
  -18.8736   36.0313  -24.4273 C   0  0  0  0  0  0  0  0  0  0  0  0
  -18.9868   35.7087  -23.0416 N   0  0  0  0  0  4  0  0  0  0  0  0
  -20.1751   36.2849  -22.4483 C   0  0  0  0  0  0  0  0  0  0  0  0
  -19.1566   34.2505  -22.9516 C   0  0  0  0  0  0  0  0  0  0  0  0
  -17.8382   36.0415  -22.2567 C   0  0  0  0  0  0  0  0  0  0  0  0
  -17.4963   37.4598  -22.2625 C   0  0  0  0  0  0  0  0  0  0  0  0
  -16.5035   37.8592  -21.6043 O   0  0  0  0  0  0  0  0  0  0  0  0
  -18.2190   38.4111  -22.9671 O   0  0  0  0  0  0  0  0  0  0  0  0
  -18.7897   36.0838  -22.9406 Cl  0  0  0  0  0 15  0  0  0  0  0  0
  1  2  1  0
  2  3  1  0
  2  4  1  0
  2  5  1  0
  5  6  1  0
  6  7  2  0
  6  8  1  0
M  CHG  2   2   1   9  -1
M  END
$$$$
