
     RDKit          3D

 32 33  0  0  0  0  0  0  0  0999 V2000
  -18.7455   40.5696  -24.2121 C   0  0  0  0  0  0  0  0  0  0  0  0
  -17.5932   40.4185  -23.2430 C   0  0  0  0  0  0  0  0  0  0  0  0
  -17.1205   41.6667  -22.7866 O   0  0  0  0  0  0  0  0  0  0  0  0
  -17.9143   42.5517  -22.1095 C   0  0  0  0  0  0  0  0  0  0  0  0
  -19.1065   42.2514  -21.8815 O   0  0  0  0  0  0  0  0  0  0  0  0
  -17.3804   43.9049  -21.6215 C   0  0  2  0  0  0  0  0  0  0  0  0
  -16.1801   43.5286  -20.7830 C   0  0  0  0  0  0  0  0  0  0  0  0
  -15.5180   44.6817  -20.1965 C   0  0  0  0  0  0  0  0  0  0  0  0
  -14.2912   44.4006  -19.4163 C   0  0  0  0  0  0  0  0  0  0  0  0
  -13.0963   44.4111  -20.1029 C   0  0  0  0  0  0  0  0  0  0  0  0
  -11.8972   44.1584  -19.4533 C   0  0  0  0  0  0  0  0  0  0  0  0
  -11.8826   43.8916  -18.1037 C   0  0  0  0  0  0  0  0  0  0  0  0
  -13.0738   43.8792  -17.4093 C   0  0  0  0  0  0  0  0  0  0  0  0
  -14.2597   44.1331  -18.0724 C   0  0  0  0  0  0  0  0  0  0  0  0
  -18.4291   44.5383  -20.9860 N   0  0  0  0  0  0  0  0  0  0  0  0
  -18.5717   45.9323  -20.9091 C   0  0  1  0  0  0  0  0  0  0  0  0
  -18.7335   46.5875  -22.2507 C   0  0  0  0  0  0  0  0  0  0  0  0
  -18.7942   48.0457  -22.2723 C   0  0  0  0  0  0  0  0  0  0  0  0
  -20.0572   48.6809  -21.8786 C   0  0  0  0  0  0  0  0  0  0  0  0
  -20.3232   49.8614  -22.5431 C   0  0  0  0  0  0  0  0  0  0  0  0
  -21.4725   50.5614  -22.2724 C   0  0  0  0  0  0  0  0  0  0  0  0
  -22.3424   50.0612  -21.3320 C   0  0  0  0  0  0  0  0  0  0  0  0
  -22.1168   48.8858  -20.6441 C   0  0  0  0  0  0  0  0  0  0  0  0
  -20.9473   48.1984  -20.9374 C   0  0  0  0  0  0  0  0  0  0  0  0
  -20.8695   47.0085  -20.1417 N   0  0  0  0  0  0  0  0  0  0  0  0
  -22.0689   46.5706  -19.4388 C   0  0  0  0  0  0  0  0  0  0  0  0
  -22.1755   47.1314  -18.0787 C   0  0  0  0  0  0  0  0  0  0  0  0
  -21.2771   47.8967  -17.6603 O   0  0  0  0  0  0  0  0  0  0  0  0
  -23.2466   46.8243  -17.2676 O   0  0  0  0  0  0  0  0  0  0  0  0
  -19.7009   46.2127  -19.9844 C   0  0  0  0  0  0  0  0  0  0  0  0
  -19.6482   45.6569  -18.8326 O   0  0  0  0  0  0  0  0  0  0  0  0
  -17.5665   44.9921  -20.8203 Cl  0  0  0  0  0  0  0  0  0  0  0  0
  1  2  1  0
  2  3  1  0
  3  4  1  0
  4  5  2  0
  4  6  1  0
  6  7  1  1
  7  8  1  0
  8  9  1  0
  9 10  2  0
 10 11  1  0
 11 12  2  0
 12 13  1  0
 13 14  2  0
  6 15  1  0
 16 15  1  6
 16 17  1  0
 17 18  1  0
 18 19  1  0
 19 20  2  0
 20 21  1  0
 21 22  2  0
 22 23  1  0
 23 24  2  0
 24 25  1  0
 25 26  1  0
 26 27  1  0
 27 28  2  0
 27 29  1  0
 25 30  1  0
 30 31  2  0
 14  9  1  0
 30 16  1  0
 24 19  1  0
M  END
$$$$
