
     RDKit          3D

 37 42  0  0  0  0  0  0  0  0999 V2000
  -15.7605   19.3567  -41.0929 C   0  0  0  0  0  0  0  0  0  0  0  0
  -16.8886   19.1949  -40.0454 C   0  0  0  0  0  0  0  0  0  0  0  0
  -18.2278   19.3437  -40.4441 C   0  0  0  0  0  0  0  0  0  0  0  0
  -19.1403   19.0742  -38.9056 S   0  0  0  0  0  0  0  0  0  0  0  0
  -17.6571   18.7899  -37.8814 C   0  0  0  0  0  0  0  0  0  0  0  0
  -17.6072   18.5070  -36.4774 C   0  0  0  0  0  0  0  0  0  0  0  0
  -18.7523   18.7767  -35.7723 N   0  0  0  0  0  0  0  0  0  0  0  0
  -18.8719   18.5938  -34.4828 N   0  0  0  0  0  0  0  0  0  0  0  0
  -17.8786   18.1202  -33.7145 C   0  0  0  0  0  0  0  0  0  0  0  0
  -18.0241   17.9329  -32.3118 N   0  0  0  0  0  0  0  0  0  0  0  0
  -19.0914   18.4740  -31.5642 C   0  0  0  0  0  0  0  0  0  0  0  0
  -20.2075   17.7162  -31.3412 C   0  0  0  0  0  0  0  0  0  0  0  0
  -21.2667   18.2384  -30.6069 C   0  0  0  0  0  0  0  0  0  0  0  0
  -21.2206   19.5169  -30.0906 C   0  0  0  0  0  0  0  0  0  0  0  0
  -22.2590   20.0612  -29.3585 O   0  0  0  0  0  0  0  0  0  0  0  0
  -23.3264   20.6548  -30.0130 C   0  0  0  0  0  0  0  0  0  0  0  0
  -23.4379   20.4761  -31.3746 N   0  0  0  0  0  0  0  0  0  0  0  0
  -24.4488   21.0353  -32.0115 C   0  0  0  0  0  0  0  0  0  0  0  0
  -25.3994   21.7926  -31.3686 C   0  0  0  0  0  0  0  0  0  0  0  0
  -25.2813   21.9655  -30.0134 C   0  0  0  0  0  0  0  0  0  0  0  0
  -24.2264   21.3921  -29.2938 C   0  0  0  0  0  0  0  0  0  0  0  0
  -24.1593   21.6013  -27.8610 C   0  0  0  0  0  0  0  0  0  0  0  0
  -23.5178   20.8486  -26.9410 C   0  0  0  0  0  0  0  0  0  0  0  0
  -23.5791   21.2248  -25.5960 C   0  0  0  0  0  0  0  0  0  0  0  0
  -24.2562   22.3106  -25.1979 N   0  0  0  0  0  0  0  0  0  0  0  0
  -24.8906   23.0546  -26.1129 C   0  0  0  0  0  0  0  0  0  0  0  0
  -25.6339   24.2327  -25.7389 N   0  0  0  0  0  0  0  0  0  0  0  0
  -24.8307   22.6953  -27.3867 N   0  0  0  0  0  0  0  0  0  0  0  0
  -20.0658   20.2308  -30.3506 C   0  0  0  0  0  0  0  0  0  0  0  0
  -19.0074   19.7575  -31.0641 C   0  0  0  0  0  0  0  0  0  0  0  0
  -16.6978   17.8279  -34.3627 C   0  0  0  0  0  0  0  0  0  0  0  0
  -15.6548   17.3386  -33.6136 C   0  0  0  0  0  0  0  0  0  0  0  0
  -14.4768   17.0434  -34.2517 C   0  0  0  0  0  0  0  0  0  0  0  0
  -14.3331   17.2254  -35.5874 C   0  0  0  0  0  0  0  0  0  0  0  0
  -15.3937   17.7228  -36.3484 C   0  0  0  0  0  0  0  0  0  0  0  0
  -16.5727   18.0259  -35.7500 C   0  0  0  0  0  0  0  0  0  0  0  0
  -16.6520   18.9216  -38.7701 C   0  0  0  0  0  0  0  0  0  0  0  0
  1  2  1  0
  2  3  2  0
  3  4  1  0
  4  5  1  0
  5  6  1  0
  6  7  2  0
  7  8  1  0
  8  9  2  0
  9 10  1  0
 10 11  1  0
 11 12  2  0
 12 13  1  0
 13 14  2  0
 14 15  1  0
 15 16  1  0
 16 17  2  0
 17 18  1  0
 18 19  2  0
 19 20  1  0
 20 21  2  0
 21 22  1  0
 22 23  2  0
 23 24  1  0
 24 25  2  0
 25 26  1  0
 26 27  1  0
 26 28  2  0
 14 29  1  0
 29 30  2  0
  9 31  1  0
 31 32  2  0
 32 33  1  0
 33 34  2  0
 34 35  1  0
 35 36  2  0
  5 37  2  0
 37  2  1  0
 36  6  1  0
 30 11  1  0
 36 31  1  0
 21 16  1  0
 28 22  1  0
M  END
$$$$
