
     RDKit          3D

 21 24  0  0  0  0  0  0  0  0999 V2000
  -18.1403   12.7317  -30.7848 C   0  0  0  0  0  0  0  0  0  0  0  0
  -17.4674   13.5562  -29.7488 C   0  0  0  0  0  0  0  0  0  0  0  0
  -16.0858   13.6680  -29.7254 C   0  0  0  0  0  0  0  0  0  0  0  0
  -15.5204   14.4613  -28.7212 C   0  0  0  0  0  0  0  0  0  0  0  0
  -14.2559   14.6066  -28.6426 N   0  0  0  0  0  0  0  0  0  0  0  0
  -13.3832   13.5096  -28.4338 C   0  0  0  0  0  0  0  0  0  0  0  0
  -13.3404   12.5271  -29.3979 C   0  0  0  0  0  0  0  0  0  0  0  0
  -12.5019   11.4129  -29.2604 C   0  0  0  0  0  0  0  0  0  0  0  0
  -11.7116   11.3177  -28.1289 C   0  0  0  0  0  0  0  0  0  0  0  0
  -10.8580   10.2308  -27.9392 C   0  0  0  0  0  0  0  0  0  0  0  0
  -10.0632   10.1193  -26.8177 C   0  0  0  0  0  0  0  0  0  0  0  0
  -10.0907   11.0905  -25.8415 C   0  0  0  0  0  0  0  0  0  0  0  0
  -10.9363   12.1635  -26.0332 C   0  0  0  0  0  0  0  0  0  0  0  0
  -11.7398   12.2951  -27.1472 C   0  0  0  0  0  0  0  0  0  0  0  0
  -12.5861   13.3887  -27.3185 C   0  0  0  0  0  0  0  0  0  0  0  0
  -16.2883   15.0906  -27.8142 N   0  0  0  0  0  0  0  0  0  0  0  0
  -16.0337   15.8813  -26.7853 N   0  0  0  0  0  0  0  0  0  0  0  0
  -17.1755   16.2546  -26.1851 C   0  0  0  0  0  0  0  0  0  0  0  0
  -18.1876   15.6707  -26.8701 N   0  0  0  0  0  0  0  0  0  0  0  0
  -17.6195   14.9618  -27.8648 C   0  0  0  0  0  0  0  0  0  0  0  0
  -18.2160   14.1987  -28.8260 N   0  0  0  0  0  0  0  0  0  0  0  0
  1  2  1  0
  2  3  2  0
  3  4  1  0
  4  5  2  0
  5  6  1  0
  6  7  2  0
  7  8  1  0
  8  9  2  0
  9 10  1  0
 10 11  2  0
 11 12  1  0
 12 13  2  0
 13 14  1  0
 14 15  2  0
  4 16  1  0
 16 17  1  0
 17 18  2  0
 18 19  1  0
 19 20  2  0
 20 21  1  0
 21  2  1  0
 15  6  1  0
 20 16  1  0
 14  9  1  0
M  END
$$$$
