
     RDKit          3D

 34 36  0  0  0  0  0  0  0  0999 V2000
  -15.0127   20.0658  -42.6677 C   0  0  0  0  0  0  0  0  0  0  0  0
  -14.9369   18.6989  -42.3220 O   0  0  0  0  0  0  0  0  0  0  0  0
  -15.1278   18.3009  -41.0070 C   0  0  0  0  0  0  0  0  0  0  0  0
  -16.2392   18.6880  -40.2939 C   0  0  0  0  0  0  0  0  0  0  0  0
  -16.4205   18.2780  -38.9647 C   0  0  0  0  0  0  0  0  0  0  0  0
  -17.5873   18.6720  -38.2092 C   0  0  0  0  0  0  0  0  0  0  0  0
  -18.4175   19.4141  -38.8132 O   0  0  0  0  0  0  0  0  0  0  0  0
  -17.8648   18.2989  -36.8795 N   0  0  0  0  0  0  0  0  0  0  0  0
  -19.2334   18.3005  -36.4278 C   0  0  0  0  0  0  0  0  0  0  0  0
  -19.8274   16.9482  -36.1588 C   0  0  0  0  0  0  0  0  0  0  0  0
  -21.2164   16.8111  -36.7000 C   0  0  0  0  0  0  0  0  0  0  0  0
  -21.7700   15.4710  -36.2901 C   0  0  0  0  0  0  0  0  0  0  0  0
  -22.9071   15.4209  -35.5395 C   0  0  0  0  0  0  0  0  0  0  0  0
  -23.4006   14.1750  -35.1729 C   0  0  0  0  0  0  0  0  0  0  0  0
  -22.7955   12.9897  -35.5316 C   0  0  0  0  0  0  0  0  0  0  0  0
  -21.6325   13.0875  -36.3006 C   0  0  0  0  0  0  0  0  0  0  0  0
  -21.1365   14.3196  -36.6686 C   0  0  0  0  0  0  0  0  0  0  0  0
  -16.8160   17.9037  -36.0077 C   0  0  0  0  0  0  0  0  0  0  0  0
  -16.6493   18.6801  -34.7616 C   0  0  0  0  0  0  0  0  0  0  0  0
  -15.8916   19.8550  -34.7601 C   0  0  0  0  0  0  0  0  0  0  0  0
  -15.7277   20.6034  -33.6155 C   0  0  0  0  0  0  0  0  0  0  0  0
  -16.2953   20.2448  -32.4098 C   0  0  0  0  0  0  0  0  0  0  0  0
  -16.1101   21.0663  -31.1800 C   0  0  0  0  0  0  0  0  0  0  0  0
  -15.6389   20.2343  -30.0708 C   0  0  0  0  0  0  0  0  0  0  0  0
  -15.6385   20.7051  -28.8984 O   0  0  0  0  0  0  0  0  0  0  0  0
  -15.2036   18.9453  -30.3398 O   0  0  0  0  0  0  0  0  0  0  0  0
  -17.0453   19.0879  -32.3981 C   0  0  0  0  0  0  0  0  0  0  0  0
  -17.2136   18.3266  -33.5572 C   0  0  0  0  0  0  0  0  0  0  0  0
  -15.4367   17.4788  -38.4255 C   0  0  0  0  0  0  0  0  0  0  0  0
  -14.3094   17.0821  -39.1371 C   0  0  0  0  0  0  0  0  0  0  0  0
  -13.3231   16.2836  -38.6022 O   0  0  0  0  0  0  0  0  0  0  0  0
  -12.9950   16.2588  -37.2363 C   0  0  0  0  0  0  0  0  0  0  0  0
  -14.1536   17.4984  -40.4431 C   0  0  0  0  0  0  0  0  0  0  0  0
  -12.9809   17.1225  -41.2700 C   0  0  0  0  0  0  0  0  0  0  0  0
  1  2  1  0
  2  3  1  0
  3  4  2  0
  4  5  1  0
  5  6  1  0
  6  7  2  0
  6  8  1  0
  8  9  1  0
  9 10  1  0
 10 11  1  0
 11 12  1  0
 12 13  2  0
 13 14  1  0
 14 15  2  0
 15 16  1  0
 16 17  2  0
  8 18  1  0
 18 19  1  0
 19 20  2  0
 20 21  1  0
 21 22  2  0
 22 23  1  0
 23 24  1  0
 24 25  2  0
 24 26  1  0
 22 27  1  0
 27 28  2  0
  5 29  2  0
 29 30  1  0
 30 31  1  0
 31 32  1  0
 30 33  2  0
 33 34  1  0
 33  3  1  0
 17 12  1  0
 28 19  1  0
M  END
$$$$
