
     RDKit          3D

 23 25  0  0  0  0  0  0  0  0999 V2000
    1.1373   24.6453  -19.8924 C   0  0  0  0  0  0  0  0  0  0  0  0
    2.6462   24.3675  -19.9434 C   0  0  0  0  0  0  0  0  0  0  0  0
    2.8703   23.0097  -19.3504 C   0  0  0  0  0  0  0  0  0  0  0  0
    3.0915   21.9427  -20.3677 C   0  0  0  0  0  0  0  0  0  0  0  0
    3.5804   22.2066  -21.5234 O   0  0  0  0  0  0  0  0  0  0  0  0
    2.7899   20.5713  -20.1589 N   0  0  0  0  0  0  0  0  0  0  0  0
    2.4589   19.7264  -21.2576 C   0  0  0  0  0  0  0  0  0  0  0  0
    2.9251   20.1545  -22.5106 C   0  0  0  0  0  0  0  0  0  0  0  0
    2.6490   19.3963  -23.6193 C   0  0  0  0  0  0  0  0  0  0  0  0
    1.9280   18.2365  -23.5061 C   0  0  0  0  0  0  0  0  0  0  0  0
    1.4963   17.8602  -22.2709 C   0  0  0  0  0  0  0  0  0  0  0  0
    1.7367   18.5796  -21.0903 C   0  0  0  0  0  0  0  0  0  0  0  0
    1.2470   18.0943  -19.8495 N   0  0  0  0  0  0  0  0  0  0  0  0
    2.0690   17.7861  -18.7047 C   0  0  0  0  0  0  0  0  0  0  0  0
    1.3994   16.5073  -18.1745 C   0  0  0  0  0  0  0  0  0  0  0  0
   -0.0532   17.0026  -18.1850 C   0  0  0  0  0  0  0  0  0  0  0  0
   -0.1184   17.8351  -19.4835 C   0  0  0  0  0  0  0  0  0  0  0  0
    3.8913   23.0155  -18.2807 C   0  0  0  0  0  0  0  0  0  0  0  0
    3.6612   22.3826  -17.0525 C   0  0  0  0  0  0  0  0  0  0  0  0
    4.5953   22.3850  -16.0407 C   0  0  0  0  0  0  0  0  0  0  0  0
    5.8097   23.0174  -16.1958 C   0  0  0  0  0  0  0  0  0  0  0  0
    6.0584   23.6467  -17.3949 C   0  0  0  0  0  0  0  0  0  0  0  0
    5.1071   23.6429  -18.4218 C   0  0  0  0  0  0  0  0  0  0  0  0
  1  2  1  0
  2  3  1  0
  3  4  1  0
  4  5  2  0
  4  6  1  0
  6  7  1  0
  7  8  2  0
  8  9  1  0
  9 10  2  0
 10 11  1  0
 11 12  2  0
 12 13  1  0
 13 14  1  0
 14 15  1  0
 15 16  1  0
 16 17  1  0
  3 18  1  0
 18 19  2  0
 19 20  1  0
 20 21  2  0
 21 22  1  0
 22 23  2  0
 12  7  1  0
 17 13  1  0
 23 18  1  0
M  END
$$$$
