
     RDKit          3D

 19 20  0  0  0  0  0  0  0  0999 V2000
  -19.8075   36.9398  -20.8391 O   0  0  0  0  0  0  0  0  0  0  0  0
  -19.2086   38.0337  -20.8409 C   0  0  0  0  0  0  0  0  0  0  0  0
  -17.8810   38.0619  -21.2341 O   0  0  0  0  0  0  0  0  0  0  0  0
  -19.8337   39.3175  -20.4453 C   0  0  0  0  0  0  0  0  0  0  0  0
  -18.8408   40.3597  -20.2920 N   0  0  0  0  0  0  0  0  0  0  0  0
  -18.0799   40.6187  -19.1086 C   0  0  0  0  0  0  0  0  0  0  0  0
  -18.3663   40.3193  -17.9322 O   0  0  0  0  0  0  0  0  0  0  0  0
  -16.8178   41.3434  -19.5178 C   0  0  0  0  0  0  0  0  0  0  0  0
  -17.2435   42.0991  -20.7199 C   0  0  0  0  0  0  0  0  0  0  0  0
  -17.5726   43.5252  -20.4881 C   0  0  0  0  0  0  0  0  0  0  0  0
  -16.3690   44.2384  -19.9698 C   0  0  0  0  0  0  0  0  0  0  0  0
  -15.2588   44.2808  -20.8208 C   0  0  0  0  0  0  0  0  0  0  0  0
  -14.1361   44.9378  -20.3935 C   0  0  0  0  0  0  0  0  0  0  0  0
  -14.0673   45.5564  -19.1546 C   0  0  0  0  0  0  0  0  0  0  0  0
  -12.6041   46.3892  -18.6463 Cl  0  0  0  0  0  0  0  0  0  0  0  0
  -15.1771   45.4934  -18.3481 C   0  0  0  0  0  0  0  0  0  0  0  0
  -16.3204   44.8397  -18.7516 C   0  0  0  0  0  0  0  0  0  0  0  0
  -18.4142   41.3202  -21.2385 C   0  0  0  0  0  0  0  0  0  0  0  0
  -18.9229   41.5109  -22.3521 O   0  0  0  0  0  0  0  0  0  0  0  0
  1  2  2  0
  2  3  1  0
  2  4  1  0
  4  5  1  0
  5  6  1  0
  6  7  2  0
  6  8  1  0
  8  9  1  0
  9 10  1  0
 10 11  1  0
 11 12  2  0
 12 13  1  0
 13 14  2  0
 14 15  1  0
 14 16  1  0
 16 17  2  0
  9 18  1  0
 18 19  2  0
 18  5  1  0
 17 11  1  0
M  END
$$$$
