
     RDKit          3D

 35 37  0  0  0  0  0  0  0  0999 V2000
  -14.8845   19.4289  -37.7252 C   0  0  0  0  0  0  0  0  0  0  0  0
  -16.1437   18.6331  -37.9895 C   0  0  2  0  0  0  0  0  0  0  0  0
  -15.8249   17.4750  -38.8990 C   0  0  0  0  0  0  0  0  0  0  0  0
  -14.6355   17.7932  -39.7589 C   0  0  0  0  0  0  0  0  0  0  0  0
  -13.3868   17.4902  -39.2730 C   0  0  0  0  0  0  0  0  0  0  0  0
  -12.2404   17.7563  -39.9904 C   0  0  0  0  0  0  0  0  0  0  0  0
  -12.3782   18.3491  -41.2437 C   0  0  0  0  0  0  0  0  0  0  0  0
  -13.6127   18.6737  -41.7647 C   0  0  0  0  0  0  0  0  0  0  0  0
  -13.7672   19.4009  -43.0033 C   0  0  0  0  0  0  0  0  0  0  0  0
  -14.7125   20.4032  -43.2637 N   0  0  0  0  0  0  0  0  0  0  0  0
  -12.9680   19.0916  -43.9555 O   0  0  0  0  0  0  0  0  0  0  0  0
  -14.7493   18.3773  -40.9875 C   0  0  0  0  0  0  0  0  0  0  0  0
  -11.0429   18.4239  -41.7876 N   0  0  0  0  0  0  0  0  0  0  0  0
  -10.6959   18.2580  -43.1613 C   0  0  0  0  0  0  0  0  0  0  0  0
  -10.6067   19.6682  -43.8296 C   0  0  0  0  0  0  0  0  0  0  0  0
   -9.1736   20.0812  -43.6539 C   0  0  0  0  0  0  0  0  0  0  0  0
   -8.2500   19.1270  -44.0306 O   0  0  0  0  0  0  0  0  0  0  0  0
  -10.2160   18.6944  -40.6099 C   0  0  0  0  0  0  0  0  0  0  0  0
  -10.7770   17.5812  -39.7045 C   0  0  0  0  0  0  0  0  0  0  0  0
  -17.3207   19.3233  -38.1867 N   0  0  0  0  0  0  0  0  0  0  0  0
  -18.6054   18.7848  -38.1473 C   0  0  0  0  0  0  0  0  0  0  0  0
  -19.3478   18.7789  -36.8534 C   0  0  0  0  0  0  0  0  0  0  0  0
  -20.5806   18.2130  -36.8144 O   0  0  0  0  0  0  0  0  0  0  0  0
  -21.2416   17.2692  -36.1278 C   0  0  0  0  0  0  0  0  0  0  0  0
  -20.7528   16.0353  -35.8322 C   0  0  0  0  0  0  0  0  0  0  0  0
  -21.5258   15.1449  -35.1127 C   0  0  0  0  0  0  0  0  0  0  0  0
  -22.7899   15.4529  -34.6730 C   0  0  0  0  0  0  0  0  0  0  0  0
  -23.2816   16.7262  -34.9839 C   0  0  0  0  0  0  0  0  0  0  0  0
  -22.5618   17.6440  -35.6925 C   0  0  0  0  0  0  0  0  0  0  0  0
  -23.0068   18.8811  -36.0163 O   0  0  0  0  0  0  0  0  0  0  0  0
  -23.1783   20.0859  -35.4209 C   0  0  0  0  0  0  0  0  0  0  0  0
  -23.7640   21.2148  -36.2042 C   0  0  0  0  0  0  0  0  0  0  0  0
  -24.9847   21.0602  -36.7381 F   0  0  0  0  0  0  0  0  0  0  0  0
  -22.8773   21.6592  -37.1852 F   0  0  0  0  0  0  0  0  0  0  0  0
  -23.8501   22.2951  -35.3051 F   0  0  0  0  0  0  0  0  0  0  0  0
  2  1  1  6
  2  3  1  0
  3  4  1  0
  4  5  2  0
  5  6  1  0
  6  7  2  0
  7  8  1  0
  8  9  1  0
  9 10  1  0
  9 11  2  0
  8 12  2  0
  7 13  1  0
 13 14  1  0
 14 15  1  0
 15 16  1  0
 16 17  1  0
 13 18  1  0
 18 19  1  0
  2 20  1  0
 20 21  1  0
 21 22  1  0
 22 23  1  0
 23 24  1  0
 24 25  2  0
 25 26  1  0
 26 27  2  0
 27 28  1  0
 28 29  2  0
 29 30  1  0
 30 31  1  0
 31 32  1  0
 32 33  1  0
 32 34  1  0
 32 35  1  0
 12  4  1  0
 29 24  1  0
 19  6  1  0
M  END
$$$$
