
     RDKit          3D

 11 11  0  0  0  0  0  0  0  0999 V2000
  -17.9050   37.6411  -19.9567 O   0  0  0  0  0  0  0  0  0  0  0  0
  -18.0385   37.4020  -21.4470 S   0  0  0  0  0  6  0  0  0  0  0  0
  -16.7156   37.7491  -22.0627 O   0  0  0  0  0  0  0  0  0  0  0  0
  -18.4289   35.7811  -21.7107 O   0  0  0  0  0  0  0  0  0  0  0  0
  -19.2895   38.4470  -21.9927 N   0  0  0  0  0  0  0  0  0  0  0  0
  -19.1488   39.7972  -21.4676 C   0  0  0  0  0  0  0  0  0  0  0  0
  -20.5054   40.3901  -21.4086 C   0  0  0  0  0  0  0  0  0  0  0  0
  -20.5983   41.8578  -21.4207 C   0  0  0  0  0  0  0  0  0  0  0  0
  -19.5880   42.5926  -22.2128 C   0  0  0  0  0  0  0  0  0  0  0  0
  -18.1999   42.0263  -22.1331 C   0  0  0  0  0  0  0  0  0  0  0  0
  -18.1697   40.5334  -22.3242 C   0  0  0  0  0  0  0  0  0  0  0  0
  1  2  2  0
  2  3  2  0
  2  4  1  0
  2  5  1  0
  5  6  1  0
  6  7  1  0
  7  8  1  0
  8  9  1  0
  9 10  1  0
 10 11  1  0
 11  6  1  0
M  END
$$$$
