
     RDKit          3D

 28 30  0  0  0  0  0  0  0  0999 V2000
  -17.8275   37.5126  -22.4611 C   0  0  0  0  0  0  0  0  0  0  0  0
  -19.2369   37.5929  -21.9542 C   0  0  0  0  0  0  0  0  0  0  0  0
  -20.1790   36.7570  -22.3762 N   0  0  0  0  0  0  0  0  0  0  0  0
  -21.2492   36.6658  -22.1215 N   0  0  0  0  0  0  0  0  0  0  0  0
  -21.4270   38.0525  -20.8802 S   0  0  0  0  0  0  0  0  0  0  0  0
  -19.6448   38.5033  -21.0487 C   0  0  0  0  0  0  0  0  0  0  0  0
  -19.0746   39.5850  -20.3008 C   0  0  0  0  0  0  0  0  0  0  0  0
  -19.3381   39.6127  -19.0630 O   0  0  0  0  0  0  0  0  0  0  0  0
  -18.2688   40.5856  -20.8287 N   0  0  0  0  0  0  0  0  0  0  0  0
  -17.4790   41.5139  -20.1148 C   0  0  0  0  0  0  0  0  0  0  0  0
  -17.4466   41.6803  -18.7550 C   0  0  0  0  0  0  0  0  0  0  0  0
  -16.6448   42.6149  -18.1124 C   0  0  0  0  0  0  0  0  0  0  0  0
  -15.8316   43.4286  -18.8526 C   0  0  0  0  0  0  0  0  0  0  0  0
  -14.9921   44.4019  -18.2325 N   0  0  0  0  0  0  0  0  0  0  0  0
  -15.2623   45.6925  -18.1220 N   0  0  0  0  0  0  0  0  0  0  0  0
  -14.2692   46.3383  -17.4861 C   0  0  0  0  0  0  0  0  0  0  0  0
  -14.2205   47.7951  -17.1794 C   0  0  0  0  0  0  0  0  0  0  0  0
  -15.5025   48.1820  -16.8287 F   0  0  0  0  0  0  0  0  0  0  0  0
  -13.2992   48.0893  -16.1940 F   0  0  0  0  0  0  0  0  0  0  0  0
  -13.8703   48.4855  -18.3143 F   0  0  0  0  0  0  0  0  0  0  0  0
  -13.3281   45.3750  -17.1881 C   0  0  0  0  0  0  0  0  0  0  0  0
  -13.7889   44.1604  -17.6600 C   0  0  0  0  0  0  0  0  0  0  0  0
  -13.0786   42.8587  -17.5462 C   0  0  0  0  0  0  0  0  0  0  0  0
  -12.0997   42.9466  -16.5461 F   0  0  0  0  0  0  0  0  0  0  0  0
  -13.9238   41.8388  -17.1474 F   0  0  0  0  0  0  0  0  0  0  0  0
  -12.3965   42.5496  -18.7078 F   0  0  0  0  0  0  0  0  0  0  0  0
  -15.8546   43.2723  -20.2143 C   0  0  0  0  0  0  0  0  0  0  0  0
  -16.6389   42.3560  -20.8655 C   0  0  0  0  0  0  0  0  0  0  0  0
  1  2  1  0
  2  3  1  0
  3  4  2  0
  4  5  1  0
  5  6  1  0
  6  7  1  0
  7  8  2  0
  7  9  1  0
  9 10  1  0
 10 11  2  0
 11 12  1  0
 12 13  2  0
 13 14  1  0
 14 15  1  0
 15 16  2  0
 16 17  1  0
 17 18  1  0
 17 19  1  0
 17 20  1  0
 16 21  1  0
 21 22  2  0
 22 23  1  0
 23 24  1  0
 23 25  1  0
 23 26  1  0
 13 27  1  0
 27 28  2  0
  6  2  2  0
 28 10  1  0
 22 14  1  0
M  END
$$$$
