
     RDKit          3D

 23 25  0  0  0  0  0  0  0  0999 V2000
  -19.1071   39.7110  -22.0099 O   0  0  0  0  0  0  0  0  0  0  0  0
  -18.0536   39.4676  -22.6087 C   0  0  0  0  0  0  0  0  0  0  0  0
  -17.1919   40.4414  -23.1639 N   0  0  0  0  0  0  0  0  0  0  0  0
  -17.5739   41.8146  -23.2118 C   0  0  0  0  0  0  0  0  0  0  0  0
  -18.5514   42.1069  -24.3171 C   0  0  0  0  0  0  0  0  0  0  0  0
  -19.5924   42.9826  -24.1580 C   0  0  0  0  0  0  0  0  0  0  0  0
  -20.4826   43.2072  -25.2165 C   0  0  0  0  0  0  0  0  0  0  0  0
  -20.3405   42.5722  -26.4143 C   0  0  0  0  0  0  0  0  0  0  0  0
  -19.2952   41.6946  -26.5720 C   0  0  0  0  0  0  0  0  0  0  0  0
  -19.1712   41.0531  -27.8159 O   0  0  0  0  0  0  0  0  0  0  0  0
  -18.4248   41.4727  -25.5412 C   0  0  0  0  0  0  0  0  0  0  0  0
  -17.6709   38.0923  -22.7576 N   0  0  0  0  0  0  0  0  0  0  0  0
  -18.5508   37.1134  -22.2125 C   0  0  0  0  0  0  0  0  0  0  0  0
  -18.2804   35.8070  -21.8788 N   0  0  0  0  0  0  0  0  0  0  0  0
  -19.2089   35.0695  -21.3973 C   0  0  0  0  0  0  0  0  0  0  0  0
  -18.9894   33.6253  -21.0319 C   0  0  0  0  0  0  0  0  0  0  0  0
  -17.7024   33.1796  -20.7514 C   0  0  0  0  0  0  0  0  0  0  0  0
  -17.4409   31.8715  -20.4235 C   0  0  0  0  0  0  0  0  0  0  0  0
  -18.4791   31.0211  -20.3810 N   0  0  0  0  0  0  0  0  0  0  0  0
  -19.7327   31.4174  -20.6451 C   0  0  0  0  0  0  0  0  0  0  0  0
  -20.0003   32.7312  -20.9745 C   0  0  0  0  0  0  0  0  0  0  0  0
  -20.4732   35.6025  -21.2191 C   0  0  0  0  0  0  0  0  0  0  0  0
  -20.2387   37.2418  -21.7929 S   0  0  0  0  0  0  0  0  0  0  0  0
  1  2  2  0
  2  3  1  0
  3  4  1  0
  4  5  1  0
  5  6  2  0
  6  7  1  0
  7  8  2  0
  8  9  1  0
  9 10  1  0
  9 11  2  0
  2 12  1  0
 12 13  1  0
 13 14  2  0
 14 15  1  0
 15 16  1  0
 16 17  2  0
 17 18  1  0
 18 19  2  0
 19 20  1  0
 20 21  2  0
 15 22  2  0
 22 23  1  0
 11  5  1  0
 23 13  1  0
 21 16  1  0
M  END
$$$$
