
     RDKit          3D

 21 22  0  0  0  0  0  0  0  0999 V2000
  -18.6598   -0.9691  -35.3760 C   0  0  0  0  0  0  0  0  0  0  0  0
  -17.9564    0.2074  -35.8292 N   0  0  0  0  0  0  0  0  0  0  0  0
  -18.2116    0.7202  -37.1446 C   0  0  0  0  0  0  0  0  0  0  0  0
  -17.0145    0.8347  -34.9431 C   0  0  0  0  0  0  0  0  0  0  0  0
  -16.3383    1.8135  -35.3223 O   0  0  0  0  0  0  0  0  0  0  0  0
  -16.8265    0.3649  -33.6227 N   0  0  0  0  0  0  0  0  0  0  0  0
  -15.7792    0.6965  -32.7302 C   0  0  0  0  0  0  0  0  0  0  0  0
  -16.1642    0.9878  -31.4054 C   0  0  0  0  0  0  0  0  0  0  0  0
  -15.2225    1.3203  -30.4691 C   0  0  0  0  0  0  0  0  0  0  0  0
  -13.8976    1.3663  -30.8376 C   0  0  0  0  0  0  0  0  0  0  0  0
  -13.4790    1.0905  -32.1144 C   0  0  0  0  0  0  0  0  0  0  0  0
  -12.0664    1.1533  -32.4554 C   0  0  0  0  0  0  0  0  0  0  0  0
  -11.3300    2.2957  -32.1421 C   0  0  0  0  0  0  0  0  0  0  0  0
   -9.9929    2.3978  -32.4464 C   0  0  0  0  0  0  0  0  0  0  0  0
   -9.3238    1.3682  -33.0772 C   0  0  0  0  0  0  0  0  0  0  0  0
   -7.9520    1.4807  -33.3868 N   0  0  0  0  0  0  0  0  0  0  0  0
   -7.2601    2.7238  -33.1250 C   0  0  0  0  0  0  0  0  0  0  0  0
   -7.2229    0.3702  -33.9637 C   0  0  0  0  0  0  0  0  0  0  0  0
  -10.0495    0.2296  -33.3915 C   0  0  0  0  0  0  0  0  0  0  0  0
  -11.3994    0.1251  -33.0849 C   0  0  0  0  0  0  0  0  0  0  0  0
  -14.4663    0.7555  -33.0415 C   0  0  0  0  0  0  0  0  0  0  0  0
  1  2  1  0
  2  3  1  0
  2  4  1  0
  4  5  2  0
  4  6  1  0
  6  7  1  0
  7  8  2  0
  8  9  1  0
  9 10  2  0
 10 11  1  0
 11 12  1  0
 12 13  2  0
 13 14  1  0
 14 15  2  0
 15 16  1  0
 16 17  1  0
 16 18  1  0
 15 19  1  0
 19 20  2  0
 11 21  2  0
 21  7  1  0
 20 12  1  0
M  END
$$$$
