
     RDKit          3D

 18 19  0  0  0  0  0  0  0  0999 V2000
  -25.2061   14.4207  -24.8933 C   0  0  0  0  0  0  0  0  0  0  0  0
  -25.4385   15.7625  -24.3017 C   0  0  0  0  0  0  0  0  0  0  0  0
  -24.3796   16.5871  -23.9905 C   0  0  0  0  0  0  0  0  0  0  0  0
  -24.6856   17.8123  -23.4461 C   0  0  0  0  0  0  0  0  0  0  0  0
  -25.9606   18.1819  -23.2303 N   0  0  0  0  0  0  0  0  0  0  0  0
  -26.9995   17.3682  -23.5376 C   0  0  0  0  0  0  0  0  0  0  0  0
  -28.3267   17.8042  -23.2917 N   0  0  0  0  0  0  0  0  0  0  0  0
  -29.7062   16.8272  -23.5589 S   0  0  0  0  0  6  0  0  0  0  0  0
  -30.9831   17.5649  -23.3051 O   0  0  0  0  0  0  0  0  0  0  0  0
  -29.7707   16.3514  -24.9951 O   0  0  0  0  0  0  0  0  0  0  0  0
  -29.6217   15.4480  -22.4880 C   0  0  0  0  0  0  0  0  0  0  0  0
  -29.6045   15.6818  -21.1183 C   0  0  0  0  0  0  0  0  0  0  0  0
  -29.5415   14.5966  -20.2739 C   0  0  0  0  0  0  0  0  0  0  0  0
  -29.4943   13.2906  -20.7001 C   0  0  0  0  0  0  0  0  0  0  0  0
  -29.4303   12.2017  -19.8165 N   0  0  0  0  0  0  0  0  0  0  0  0
  -29.5136   13.0976  -22.0816 C   0  0  0  0  0  0  0  0  0  0  0  0
  -29.5760   14.1485  -22.9679 C   0  0  0  0  0  0  0  0  0  0  0  0
  -26.6936   16.1804  -24.0657 N   0  0  0  0  0  0  0  0  0  0  0  0
  1  2  1  0
  2  3  2  0
  3  4  1  0
  4  5  2  0
  5  6  1  0
  6  7  1  0
  7  8  1  0
  8  9  2  0
  8 10  2  0
  8 11  1  0
 11 12  2  0
 12 13  1  0
 13 14  2  0
 14 15  1  0
 14 16  1  0
 16 17  2  0
  6 18  2  0
 18  2  1  0
 17 11  1  0
M  END
$$$$
