
     RDKit          3D

 31 33  0  0  0  0  0  0  0  0999 V2000
  -22.7474   42.1305  -23.7217 C   0  0  0  0  0  0  0  0  0  0  0  0
  -21.6358   42.6724  -24.5695 C   0  0  1  0  0  0  0  0  0  0  0  0
  -20.6299   41.7076  -24.6524 O   0  0  0  0  0  0  0  0  0  0  0  0
  -20.3119   40.8713  -23.5710 C   0  0  0  0  0  0  0  0  0  0  0  0
  -19.9189   41.4490  -22.3627 C   0  0  0  0  0  0  0  0  0  0  0  0
  -19.6059   40.6356  -21.2994 C   0  0  0  0  0  0  0  0  0  0  0  0
  -19.2043   41.2040  -20.0631 N   0  0  0  0  0  0  0  0  0  0  0  0
  -19.0280   42.9004  -19.8334 S   0  0  0  0  0  6  0  0  0  0  0  0
  -20.2166   43.6137  -20.3561 O   0  0  0  0  0  0  0  0  0  0  0  0
  -18.9144   43.2030  -18.3573 O   0  0  0  0  0  0  0  0  0  0  0  0
  -17.5828   43.3827  -20.6422 N   0  0  0  0  0  0  0  0  0  0  0  0
  -17.7994   44.2717  -21.7672 C   0  0  0  0  0  0  0  0  0  0  0  0
  -16.4488   44.9075  -21.4116 C   0  0  0  0  0  0  0  0  0  0  0  0
  -16.8705   44.4804  -19.9999 C   0  0  0  0  0  0  0  0  0  0  0  0
  -19.6906   39.3094  -21.4647 N   0  0  0  0  0  0  0  0  0  0  0  0
  -20.0771   38.7625  -22.6546 C   0  0  0  0  0  0  0  0  0  0  0  0
  -20.1660   36.9848  -22.7982 S   0  0  0  0  0  0  0  0  0  0  0  0
  -19.8739   36.2640  -21.1737 C   0  0  0  0  0  0  0  0  0  0  0  0
  -18.8559   35.1949  -21.2820 C   0  0  0  0  0  0  0  0  0  0  0  0
  -19.1921   33.9573  -21.7459 C   0  0  0  0  0  0  0  0  0  0  0  0
  -18.2455   32.9728  -21.8434 C   0  0  0  0  0  0  0  0  0  0  0  0
  -16.9354   33.2047  -21.4775 C   0  0  0  0  0  0  0  0  0  0  0  0
  -16.6235   34.4795  -21.0074 C   0  0  0  0  0  0  0  0  0  0  0  0
  -15.3517   34.7415  -20.6409 F   0  0  0  0  0  0  0  0  0  0  0  0
  -17.5733   35.4594  -20.9120 C   0  0  0  0  0  0  0  0  0  0  0  0
  -17.1928   36.6899  -20.4406 F   0  0  0  0  0  0  0  0  0  0  0  0
  -20.3874   39.5354  -23.7062 N   0  0  0  0  0  0  0  0  0  0  0  0
  -22.1278   43.1037  -25.9415 C   0  0  1  0  0  0  0  0  0  0  0  0
  -23.4469   43.5122  -25.8404 O   0  0  0  0  0  0  0  0  0  0  0  0
  -21.2744   44.2540  -26.4624 C   0  0  0  0  0  0  0  0  0  0  0  0
  -19.9857   43.7899  -26.6927 O   0  0  0  0  0  0  0  0  0  0  0  0
  2  1  1  1
  2  3  1  0
  3  4  1  0
  4  5  2  0
  5  6  1  0
  6  7  1  0
  7  8  1  0
  8  9  2  0
  8 10  2  0
  8 11  1  0
 11 12  1  0
 12 13  1  0
 13 14  1  0
  6 15  2  0
 15 16  1  0
 16 17  1  0
 17 18  1  0
 18 19  1  0
 19 20  2  0
 20 21  1  0
 21 22  2  0
 22 23  1  0
 23 24  1  0
 23 25  2  0
 25 26  1  0
 16 27  2  0
  2 28  1  0
 28 29  1  1
 28 30  1  0
 30 31  1  0
 27  4  1  0
 14 11  1  0
 25 19  1  0
M  END
$$$$
