
     RDKit          3D

 22 25  0  0  0  0  0  0  0  0999 V2000
  -18.0416   44.3616  -20.5113 C   0  0  0  0  0  0  0  0  0  0  0  0
  -18.9760   44.7612  -21.4493 C   0  0  0  0  0  0  0  0  0  0  0  0
  -19.7154   43.7992  -22.1048 C   0  0  0  0  0  0  0  0  0  0  0  0
  -20.6951   44.2030  -23.0784 N   0  0  0  0  0  0  0  0  0  0  0  0
  -20.5209   45.3625  -23.9191 C   0  0  0  0  0  0  0  0  0  0  0  0
  -20.8772   46.6605  -23.2588 C   0  0  0  0  0  0  0  0  0  0  0  0
  -22.1466   47.2756  -23.7848 C   0  0  0  0  0  0  0  0  0  0  0  0
  -22.2492   47.2962  -25.2019 N   0  0  0  0  0  0  0  0  0  0  0  0
  -21.2274   46.5802  -25.8992 C   0  0  0  0  0  0  0  0  0  0  0  0
  -21.1653   45.1839  -25.2652 C   0  0  0  0  0  0  0  0  0  0  0  0
  -19.5262   42.4931  -21.8323 N   0  0  0  0  0  0  0  0  0  0  0  0
  -18.6367   42.0697  -20.9366 C   0  0  0  0  0  0  0  0  0  0  0  0
  -18.4387   40.6335  -20.6467 C   0  0  0  0  0  0  0  0  0  0  0  0
  -17.5116   40.1430  -19.7644 C   0  0  0  0  0  0  0  0  0  0  0  0
  -17.6343   38.8077  -19.7745 N   0  0  0  0  0  0  0  0  0  0  0  0
  -18.6118   38.4240  -20.6361 C   0  0  0  0  0  0  0  0  0  0  0  0
  -19.1211   37.2002  -21.0070 C   0  0  0  0  0  0  0  0  0  0  0  0
  -20.1376   37.1054  -21.9263 C   0  0  0  0  0  0  0  0  0  0  0  0
  -20.6269   38.2755  -22.4613 C   0  0  0  0  0  0  0  0  0  0  0  0
  -20.0935   39.4914  -22.0679 C   0  0  0  0  0  0  0  0  0  0  0  0
  -19.0877   39.5805  -21.1580 N   0  0  0  0  0  0  0  0  0  0  0  0
  -17.8929   43.0240  -20.2759 C   0  0  0  0  0  0  0  0  0  0  0  0
  1  2  2  0
  2  3  1  0
  3  4  1  0
  4  5  1  0
  5  6  1  0
  6  7  1  0
  7  8  1  0
  8  9  1  0
  9 10  1  0
  3 11  2  0
 11 12  1  0
 12 13  1  0
 13 14  2  0
 14 15  1  0
 15 16  2  0
 16 17  1  0
 17 18  2  0
 18 19  1  0
 19 20  2  0
 20 21  1  0
 12 22  2  0
 22  1  1  0
 10  5  1  0
 21 13  1  0
 21 16  1  0
M  END
$$$$
