
     RDKit          3D

 13 13  0  0  0  0  0  0  0  0999 V2000
  -20.9040   17.1276  -31.2294 N   0  0  0  0  0  0  0  0  0  0  0  0
  -19.6751   16.3776  -31.1500 C   0  0  0  0  0  0  0  0  0  0  0  0
  -19.7163   15.3073  -30.0825 C   0  0  0  0  0  0  0  0  0  0  0  0
  -18.4178   14.6801  -29.9937 N   0  0  0  0  0  0  0  0  0  0  0  0
  -17.4088   15.1891  -29.1289 C   0  0  0  0  0  0  0  0  0  0  0  0
  -17.5166   16.3345  -28.6269 O   0  0  0  0  0  0  0  0  0  0  0  0
  -16.2297   14.3886  -28.8097 C   0  0  0  0  0  0  0  0  0  0  0  0
  -16.0578   13.1345  -29.3517 C   0  0  0  0  0  0  0  0  0  0  0  0
  -14.9709   12.3493  -29.0819 C   0  0  0  0  0  0  0  0  0  0  0  0
  -13.9909   12.8396  -28.2185 C   0  0  0  0  0  0  0  0  0  0  0  0
  -12.6037   11.8722  -27.8562 Cl  0  0  0  0  0  0  0  0  0  0  0  0
  -14.1773   14.0851  -27.6899 C   0  0  0  0  0  0  0  0  0  0  0  0
  -15.2712   14.8348  -27.9825 N   0  0  0  0  0  0  0  0  0  0  0  0
  1  2  1  0
  2  3  1  0
  3  4  1  0
  4  5  1  0
  5  6  2  0
  5  7  1  0
  7  8  2  0
  8  9  1  0
  9 10  2  0
 10 11  1  0
 10 12  1  0
 12 13  2  0
 13  7  1  0
M  END
$$$$
