
     RDKit          3D

 24 27  0  0  0  0  0  0  0  0999 V2000
  -20.3972   41.4209  -24.7239 C   0  0  0  0  0  0  0  0  0  0  0  0
  -19.4286   41.3142  -23.6986 O   0  0  0  0  0  0  0  0  0  0  0  0
  -19.5737   40.3085  -22.7507 C   0  0  0  0  0  0  0  0  0  0  0  0
  -19.9380   39.0170  -23.0551 C   0  0  0  0  0  0  0  0  0  0  0  0
  -20.0756   38.0319  -22.0649 C   0  0  0  0  0  0  0  0  0  0  0  0
  -19.8477   38.3332  -20.7464 C   0  0  0  0  0  0  0  0  0  0  0  0
  -19.4774   39.6385  -20.4189 C   0  0  0  0  0  0  0  0  0  0  0  0
  -19.3506   40.5831  -21.4177 C   0  0  0  0  0  0  0  0  0  0  0  0
  -18.9787   41.9004  -21.1106 O   0  0  0  0  0  0  0  0  0  0  0  0
  -17.7161   42.2475  -20.6219 C   0  0  0  0  0  0  0  0  0  0  0  0
  -17.2970   43.5821  -21.2365 C   0  0  0  0  0  0  0  0  0  0  0  0
  -15.8821   43.8660  -20.7862 C   0  0  0  0  0  0  0  0  0  0  0  0
  -15.7752   44.5768  -19.5583 N   0  0  0  0  0  0  0  0  0  0  0  0
  -14.5065   44.5254  -18.9153 C   0  0  0  0  0  0  0  0  0  0  0  0
  -13.7920   45.8055  -19.2078 C   0  0  0  0  0  0  0  0  0  0  0  0
  -14.8431   46.7360  -19.7048 C   0  0  0  0  0  0  0  0  0  0  0  0
  -16.1364   45.9756  -19.6797 C   0  0  0  0  0  0  0  0  0  0  0  0
  -20.0629   37.1544  -19.9773 N   0  0  0  0  0  0  0  0  0  0  0  0
  -20.4018   36.1696  -20.7249 C   0  0  0  0  0  0  0  0  0  0  0  0
  -20.7041   34.8161  -20.3163 N   0  0  0  0  0  0  0  0  0  0  0  0
  -20.4415   36.6105  -22.1059 C   0  0  0  0  0  0  0  0  0  0  0  0
  -21.6840   36.2777  -22.8964 C   0  0  0  0  0  0  0  0  0  0  0  0
  -20.9478   35.0424  -23.3870 C   0  0  0  0  0  0  0  0  0  0  0  0
  -19.6570   35.7769  -23.0965 C   0  0  0  0  0  0  0  0  0  0  0  0
  1  2  1  0
  2  3  1  0
  3  4  2  0
  4  5  1  0
  5  6  2  0
  6  7  1  0
  7  8  2  0
  8  9  1  0
  9 10  1  0
 10 11  1  0
 11 12  1  0
 12 13  1  0
 13 14  1  0
 14 15  1  0
 15 16  1  0
 16 17  1  0
  6 18  1  0
 18 19  2  0
 19 20  1  0
 19 21  1  0
 21 22  1  0
 22 23  1  0
 23 24  1  0
  8  3  1  0
 17 13  1  0
 24 21  1  0
 21  5  1  0
M  END
$$$$
