
     RDKit          3D

 22 25  0  0  0  0  0  0  0  0999 V2000
  -17.6098   38.0530  -20.6000 O   0  0  0  0  0  0  0  0  0  0  0  0
  -17.6992   36.8133  -20.7580 C   0  0  0  0  0  0  0  0  0  0  0  0
  -16.8315   35.7981  -20.3371 N   0  0  0  0  0  0  0  0  0  0  0  0
  -17.3577   34.5406  -20.7520 C   0  0  0  0  0  0  0  0  0  0  0  0
  -16.8341   33.2649  -20.5545 C   0  0  0  0  0  0  0  0  0  0  0  0
  -17.4987   32.1791  -21.0357 C   0  0  0  0  0  0  0  0  0  0  0  0
  -16.7609   30.4519  -20.7514 Br  0  0  0  0  0  0  0  0  0  0  0  0
  -18.6783   32.3436  -21.7116 C   0  0  0  0  0  0  0  0  0  0  0  0
  -19.2307   33.6164  -21.9261 C   0  0  0  0  0  0  0  0  0  0  0  0
  -18.5618   34.7004  -21.4425 C   0  0  0  0  0  0  0  0  0  0  0  0
  -18.8015   36.1222  -21.4615 C   0  0  0  0  0  0  0  0  0  0  0  0
  -19.8389   36.7384  -22.0157 C   0  0  0  0  0  0  0  0  0  0  0  0
  -20.9424   36.0439  -22.6107 N   0  0  0  0  0  0  0  0  0  0  0  0
  -21.9019   36.9949  -23.1217 C   0  0  0  0  0  0  0  0  0  0  0  0
  -23.0998   36.7758  -23.7654 C   0  0  0  0  0  0  0  0  0  0  0  0
  -23.8402   37.8584  -24.1583 C   0  0  0  0  0  0  0  0  0  0  0  0
  -23.3886   39.1355  -23.9107 C   0  0  0  0  0  0  0  0  0  0  0  0
  -22.1860   39.3255  -23.2646 C   0  0  0  0  0  0  0  0  0  0  0  0
  -21.4127   38.2445  -22.8541 C   0  0  0  0  0  0  0  0  0  0  0  0
  -20.1218   38.1446  -22.1617 C   0  0  0  0  0  0  0  0  0  0  0  0
  -19.4880   39.1626  -21.8174 N   0  0  0  0  0  0  0  0  0  0  0  0
  -19.7643   40.4636  -22.0332 O   0  0  0  0  0  0  0  0  0  0  0  0
  1  2  2  0
  2  3  1  0
  3  4  1  0
  4  5  2  0
  5  6  1  0
  6  7  1  0
  6  8  2  0
  8  9  1  0
  9 10  2  0
 10 11  1  0
 11 12  2  0
 12 13  1  0
 13 14  1  0
 14 15  2  0
 15 16  1  0
 16 17  2  0
 17 18  1  0
 18 19  2  0
 19 20  1  0
 20 21  2  0
 21 22  1  0
 11  2  1  0
 20 12  1  0
 10  4  1  0
 19 14  1  0
M  END
$$$$
