
     RDKit          3D

 37 41  0  0  0  0  0  0  0  0999 V2000
  -18.7024   40.2283  -23.5026 C   0  0  0  0  0  0  0  0  0  0  0  0
  -19.1374   40.3725  -22.0952 C   0  0  2  0  0  0  0  0  0  0  0  0
  -18.3453   39.5357  -21.1505 C   0  0  0  0  0  0  0  0  0  0  0  0
  -18.4897   38.0854  -21.5409 C   0  0  0  0  0  0  0  0  0  0  0  0
  -19.9121   37.6856  -21.4780 C   0  0  1  0  0  0  0  0  0  0  0  0
  -20.8518   38.5514  -22.2842 C   0  0  1  0  0  0  0  0  0  0  0  0
  -22.2761   38.1863  -22.0648 C   0  0  0  0  0  0  0  0  0  0  0  0
  -22.5986   36.7861  -21.7569 C   0  0  0  0  0  0  0  0  0  0  0  0
  -21.4687   35.8844  -21.3623 C   0  0  1  0  0  0  0  0  0  0  0  0
  -21.7575   34.4926  -21.5694 N   0  0  0  0  0  0  0  0  0  0  0  0
  -20.7265   33.5952  -21.1877 C   0  0  0  0  0  0  0  0  0  0  0  0
  -20.9754   32.4128  -20.8476 O   0  0  0  0  0  0  0  0  0  0  0  0
  -19.3339   34.1127  -21.2075 C   0  0  0  0  0  0  0  0  0  0  0  0
  -19.0988   35.3437  -21.5683 C   0  0  0  0  0  0  0  0  0  0  0  0
  -20.1565   36.2627  -21.9662 C   0  0  2  0  0  0  0  0  0  0  0  0
  -20.2026   36.2397  -23.4894 C   0  0  0  0  0  0  0  0  0  0  0  0
  -20.6149   39.9629  -21.9145 C   0  0  2  0  0  0  0  0  0  0  0  0
  -21.2708   40.9761  -22.8149 C   0  0  0  0  0  0  0  0  0  0  0  0
  -20.4279   42.2201  -22.6018 C   0  0  0  0  0  0  0  0  0  0  0  0
  -19.2877   41.7940  -21.7018 C   0  0  2  0  0  0  0  0  0  0  0  0
  -18.1223   42.6566  -21.7360 C   0  0  0  0  0  0  0  0  0  0  0  0
  -17.1065   42.1891  -22.3468 O   0  0  0  0  0  0  0  0  0  0  0  0
  -17.9902   43.9396  -21.1729 N   0  0  0  0  0  0  0  0  0  0  0  0
  -17.0994   44.3727  -20.1694 C   0  0  0  0  0  0  0  0  0  0  0  0
  -15.7874   44.0137  -20.0140 C   0  0  0  0  0  0  0  0  0  0  0  0
  -14.9479   44.4658  -19.0119 C   0  0  0  0  0  0  0  0  0  0  0  0
  -13.5318   44.0254  -18.9145 C   0  0  0  0  0  0  0  0  0  0  0  0
  -12.7253   45.1108  -18.7122 F   0  0  0  0  0  0  0  0  0  0  0  0
  -13.1563   43.2623  -20.0002 F   0  0  0  0  0  0  0  0  0  0  0  0
  -13.4271   43.2161  -17.7994 F   0  0  0  0  0  0  0  0  0  0  0  0
  -15.4682   45.3486  -18.0929 C   0  0  0  0  0  0  0  0  0  0  0  0
  -16.7841   45.7506  -18.1930 C   0  0  0  0  0  0  0  0  0  0  0  0
  -17.5811   45.2668  -19.2166 C   0  0  0  0  0  0  0  0  0  0  0  0
  -18.9817   45.7483  -19.2467 C   0  0  0  0  0  0  0  0  0  0  0  0
  -19.2464   46.5970  -18.1788 F   0  0  0  0  0  0  0  0  0  0  0  0
  -19.8610   44.6620  -19.2043 F   0  0  0  0  0  0  0  0  0  0  0  0
  -19.2364   46.4487  -20.4142 F   0  0  0  0  0  0  0  0  0  0  0  0
  2  1  1  6
  2  3  1  0
  3  4  1  0
  5  4  1  6
  5  6  1  0
  6  7  1  1
  7  8  1  0
  9  8  1  6
  9 10  1  0
 10 11  1  0
 11 12  2  0
 11 13  1  0
 13 14  2  0
 14 15  1  0
 15 16  1  6
  6 17  1  0
 17 18  1  6
 18 19  1  0
 19 20  1  0
 20 21  1  6
 21 22  2  0
 21 23  1  0
 23 24  1  0
 24 25  2  0
 25 26  1  0
 26 27  1  0
 27 28  1  0
 27 29  1  0
 27 30  1  0
 26 31  2  0
 31 32  1  0
 32 33  2  0
 33 34  1  0
 34 35  1  0
 34 36  1  0
 34 37  1  0
 17  2  1  0
 33 24  1  0
 20  2  1  0
 15  5  1  0
 15  9  1  0
M  END
$$$$
