
     RDKit          3D

 25 28  0  0  0  0  0  0  0  0999 V2000
  -24.8609   -0.5641  -31.0237 O   0  0  0  0  0  0  0  0  0  0  0  0
  -25.2242   -0.2719  -29.8623 C   0  0  0  0  0  0  0  0  0  0  0  0
  -26.5322   -0.0066  -29.7782 O   0  0  0  0  0  0  0  0  0  0  0  0
  -27.1533    0.3246  -28.6907 C   0  0  0  0  0  0  0  0  0  0  0  0
  -28.5108    0.5882  -28.6602 C   0  0  0  0  0  0  0  0  0  0  0  0
  -29.1380    0.9333  -27.5095 C   0  0  0  0  0  0  0  0  0  0  0  0
  -28.3933    1.0203  -26.3467 C   0  0  0  0  0  0  0  0  0  0  0  0
  -27.0412    0.7559  -26.3848 C   0  0  0  0  0  0  0  0  0  0  0  0
  -26.3748    0.4012  -27.5476 C   0  0  0  0  0  0  0  0  0  0  0  0
  -25.0168    0.1349  -27.5875 C   0  0  0  0  0  0  0  0  0  0  0  0
  -24.3504    0.2460  -26.3908 O   0  0  0  0  0  0  0  0  0  0  0  0
  -24.3872   -0.2221  -28.7911 C   0  0  0  0  0  0  0  0  0  0  0  0
  -22.9501   -0.4974  -28.8001 C   0  0  0  0  0  0  0  0  0  0  0  0
  -22.0500    0.5280  -29.3301 C   0  0  0  0  0  0  0  0  0  0  0  0
  -21.1123    0.3534  -30.3111 C   0  0  0  0  0  0  0  0  0  0  0  0
  -20.9249   -0.8420  -30.9885 O   0  0  0  0  0  0  0  0  0  0  0  0
  -20.2801    1.4177  -30.6853 C   0  0  0  0  0  0  0  0  0  0  0  0
  -19.3362    1.2333  -31.6752 C   0  0  0  0  0  0  0  0  0  0  0  0
  -18.5071    2.2804  -32.0535 C   0  0  0  0  0  0  0  0  0  0  0  0
  -18.6284    3.5045  -31.4391 C   0  0  0  0  0  0  0  0  0  0  0  0
  -19.5560    3.7300  -30.4485 C   0  0  0  0  0  0  0  0  0  0  0  0
  -20.3702    2.6567  -30.0956 C   0  0  0  0  0  0  0  0  0  0  0  0
  -21.2810    2.7799  -29.1645 O   0  0  0  0  0  0  0  0  0  0  0  0
  -22.0818    1.8156  -28.7795 C   0  0  0  0  0  0  0  0  0  0  0  0
  -22.8890    2.1366  -27.8710 O   0  0  0  0  0  0  0  0  0  0  0  0
  1  2  2  0
  2  3  1  0
  3  4  1  0
  4  5  2  0
  5  6  1  0
  6  7  2  0
  7  8  1  0
  8  9  2  0
  9 10  1  0
 10 11  1  0
 10 12  2  0
 12 13  1  0
 13 14  1  0
 14 15  2  0
 15 16  1  0
 15 17  1  0
 17 18  2  0
 18 19  1  0
 19 20  2  0
 20 21  1  0
 21 22  2  0
 22 23  1  0
 23 24  1  0
 24 25  2  0
 12  2  1  0
 24 14  1  0
  9  4  1  0
 22 17  1  0
M  END
$$$$
