
     RDKit          3D

 24 26  0  0  0  0  0  0  0  0999 V2000
  -18.5772   38.5489  -20.8604 O   0  0  0  0  0  0  0  0  0  0  0  0
  -19.7494   38.7228  -20.5804 C   0  0  0  0  0  0  0  0  0  0  0  0
  -20.7506   37.7360  -21.0302 C   0  0  0  0  0  0  0  0  0  0  0  0
  -20.1416   36.9200  -22.1585 C   0  0  2  0  0  0  0  0  0  0  0  0
  -19.8977   37.6708  -23.3139 N   0  0  0  0  0  0  0  0  0  0  0  0
  -20.8739   37.7735  -24.3164 C   0  0  0  0  0  0  0  0  0  0  0  0
  -21.2185   36.3440  -24.7583 C   0  0  0  0  0  0  0  0  0  0  0  0
  -21.8615   35.6874  -23.5471 C   0  0  0  0  0  0  0  0  0  0  0  0
  -20.9200   35.6466  -22.3949 C   0  0  1  0  0  0  0  0  0  0  0  0
  -20.0003   34.6243  -22.6269 O   0  0  0  0  0  0  0  0  0  0  0  0
  -20.1260   39.9081  -19.7994 C   0  0  0  0  0  0  0  0  0  0  0  0
  -19.0173   40.8079  -19.5787 N   0  0  0  0  0  0  0  0  0  0  0  0
  -18.1944   40.7122  -18.5229 C   0  0  0  0  0  0  0  0  0  0  0  0
  -17.1646   41.6000  -18.3819 N   0  0  0  0  0  0  0  0  0  0  0  0
  -16.9385   42.5817  -19.2703 C   0  0  0  0  0  0  0  0  0  0  0  0
  -15.9130   43.4986  -19.1546 C   0  0  0  0  0  0  0  0  0  0  0  0
  -15.7166   44.5026  -20.0919 C   0  0  0  0  0  0  0  0  0  0  0  0
  -14.2790   45.7651  -19.9029 Br  0  0  0  0  0  0  0  0  0  0  0  0
  -16.5674   44.5895  -21.1689 C   0  0  0  0  0  0  0  0  0  0  0  0
  -16.2813   45.8800  -22.3236 Cl  0  0  0  0  0  0  0  0  0  0  0  0
  -17.5967   43.6911  -21.3097 C   0  0  0  0  0  0  0  0  0  0  0  0
  -17.7714   42.7056  -20.3695 C   0  0  0  0  0  0  0  0  0  0  0  0
  -18.7968   41.7725  -20.4548 C   0  0  0  0  0  0  0  0  0  0  0  0
  -19.5635   41.8686  -21.4498 O   0  0  0  0  0  0  0  0  0  0  0  0
  1  2  2  0
  2  3  1  0
  4  3  1  1
  4  5  1  0
  5  6  1  0
  6  7  1  0
  7  8  1  0
  8  9  1  0
  9 10  1  6
  2 11  1  0
 11 12  1  0
 12 13  1  0
 13 14  2  0
 14 15  1  0
 15 16  2  0
 16 17  1  0
 17 18  1  0
 17 19  2  0
 19 20  1  0
 19 21  1  0
 21 22  2  0
 22 23  1  0
 23 24  2  0
  9  4  1  0
 23 12  1  0
 22 15  1  0
M  END
$$$$
