
     RDKit          3D

 24 26  0  0  0  0  0  0  0  0999 V2000
  -16.8093   39.9255  -22.4866 C   0  0  0  0  0  0  0  0  0  0  0  0
  -17.8606   39.6845  -21.4652 C   0  0  0  0  0  0  0  0  0  0  0  0
  -18.3075   40.5878  -20.5062 C   0  0  0  0  0  0  0  0  0  0  0  0
  -19.2929   39.9639  -19.7481 C   0  0  0  0  0  0  0  0  0  0  0  0
  -19.9959   40.5425  -18.6701 N   0  0  0  0  0  0  0  0  0  0  0  0
  -20.2679   41.9372  -18.7109 C   0  0  0  0  0  0  0  0  0  0  0  0
  -19.7163   42.7947  -19.5818 N   0  0  0  0  0  0  0  0  0  0  0  0
  -20.0167   44.1036  -19.5716 C   0  0  0  0  0  0  0  0  0  0  0  0
  -19.4310   45.0170  -20.5087 N   0  0  0  0  0  0  0  0  0  0  0  0
  -18.5833   44.5925  -21.5711 C   0  0  1  0  0  0  0  0  0  0  0  0
  -18.5016   45.5903  -22.7104 C   0  0  0  0  0  0  0  0  0  0  0  0
  -17.1995   44.3147  -21.1145 C   0  0  0  0  0  0  0  0  0  0  0  0
  -16.4238   43.4357  -21.8157 N   0  0  0  0  0  0  0  0  0  0  0  0
  -15.1661   43.1433  -21.4444 C   0  0  0  0  0  0  0  0  0  0  0  0
  -14.5917   43.7184  -20.3320 C   0  0  0  0  0  0  0  0  0  0  0  0
  -13.3245   43.4468  -19.9309 F   0  0  0  0  0  0  0  0  0  0  0  0
  -15.3813   44.6121  -19.6200 C   0  0  0  0  0  0  0  0  0  0  0  0
  -16.6357   44.8702  -20.0344 N   0  0  0  0  0  0  0  0  0  0  0  0
  -20.9010   44.5222  -18.6439 N   0  0  0  0  0  0  0  0  0  0  0  0
  -21.4939   43.7297  -17.7416 C   0  0  0  0  0  0  0  0  0  0  0  0
  -21.1845   42.3880  -17.7540 C   0  0  0  0  0  0  0  0  0  0  0  0
  -21.9174   41.3021  -16.6127 Cl  0  0  0  0  0  0  0  0  0  0  0  0
  -19.4042   38.7270  -20.2691 N   0  0  0  0  0  0  0  0  0  0  0  0
  -18.5633   38.5670  -21.2750 N   0  0  0  0  0  0  0  0  0  0  0  0
  1  2  1  0
  2  3  2  0
  3  4  1  0
  4  5  1  0
  5  6  1  0
  6  7  2  0
  7  8  1  0
  8  9  1  0
  9 10  1  0
 10 11  1  6
 10 12  1  0
 12 13  2  0
 13 14  1  0
 14 15  2  0
 15 16  1  0
 15 17  1  0
 17 18  2  0
  8 19  2  0
 19 20  1  0
 20 21  2  0
 21 22  1  0
  4 23  2  0
 23 24  1  0
 24  2  1  0
 21  6  1  0
 18 12  1  0
M  END
$$$$
