
     RDKit          3D

 34 38  0  0  0  0  0  0  0  0999 V2000
  -22.1356   36.9529  -21.3439 C   0  0  0  0  0  0  0  0  0  0  0  0
  -21.5483   35.6506  -21.6812 C   0  0  2  0  0  0  0  0  0  0  0  0
  -21.8844   34.5413  -20.7107 C   0  0  0  0  0  0  0  0  0  0  0  0
  -22.4860   33.3610  -21.4185 C   0  0  0  0  0  0  0  0  0  0  0  0
  -21.6291   32.8011  -22.4287 N   0  0  0  0  0  0  0  0  0  0  0  0
  -20.3033   33.1318  -22.8567 C   0  0  0  0  0  0  0  0  0  0  0  0
  -19.6631   32.2821  -23.5356 O   0  0  0  0  0  0  0  0  0  0  0  0
  -19.6407   34.4071  -22.5516 C   0  0  0  0  0  0  0  0  0  0  0  0
  -18.3057   34.6390  -22.7739 C   0  0  0  0  0  0  0  0  0  0  0  0
  -17.9943   35.9172  -22.3732 C   0  0  0  0  0  0  0  0  0  0  0  0
  -16.8286   36.6508  -22.3718 C   0  0  0  0  0  0  0  0  0  0  0  0
  -16.8072   37.9477  -21.8960 C   0  0  0  0  0  0  0  0  0  0  0  0
  -18.0020   38.4944  -21.4140 C   0  0  0  0  0  0  0  0  0  0  0  0
  -18.0260   39.8631  -20.9306 C   0  0  0  0  0  0  0  0  0  0  0  0
  -17.6594   40.0810  -19.7288 O   0  0  0  0  0  0  0  0  0  0  0  0
  -18.4227   40.9936  -21.6671 N   0  0  0  0  0  0  0  0  0  0  0  0
  -18.0261   42.3252  -21.3237 C   0  0  0  0  0  0  0  0  0  0  0  0
  -17.0024   42.5622  -20.4498 N   0  0  0  0  0  0  0  0  0  0  0  0
  -16.8620   43.8858  -20.3174 C   0  0  0  0  0  0  0  0  0  0  0  0
  -16.0214   44.7155  -19.5960 C   0  0  0  0  0  0  0  0  0  0  0  0
  -16.1133   46.0963  -19.6624 C   0  0  0  0  0  0  0  0  0  0  0  0
  -17.0705   46.6685  -20.4716 C   0  0  0  0  0  0  0  0  0  0  0  0
  -17.9064   45.8441  -21.1885 C   0  0  0  0  0  0  0  0  0  0  0  0
  -17.8082   44.4609  -21.1167 C   0  0  0  0  0  0  0  0  0  0  0  0
  -18.4902   43.4935  -21.7059 N   0  0  0  0  0  0  0  0  0  0  0  0
  -19.6146   43.7046  -22.6327 C   0  0  0  0  0  0  0  0  0  0  0  0
  -19.2575   43.1631  -23.9701 C   0  0  0  0  0  0  0  0  0  0  0  0
  -19.7282   43.9428  -25.1280 C   0  0  0  0  0  0  0  0  0  0  0  0
  -19.3298   43.5497  -26.4340 N   0  0  0  0  0  0  0  0  0  0  0  0
  -19.9469   42.2083  -26.6401 C   0  0  0  0  0  0  0  0  0  0  0  0
  -19.9461   44.4174  -27.4463 C   0  0  0  0  0  0  0  0  0  0  0  0
  -19.1656   37.7592  -21.4165 C   0  0  0  0  0  0  0  0  0  0  0  0
  -19.1842   36.4641  -21.8948 C   0  0  0  0  0  0  0  0  0  0  0  0
  -20.1658   35.5581  -22.0057 N   0  0  0  0  0  0  0  0  0  0  0  0
  2  1  1  1
  2  3  1  0
  3  4  1  0
  4  5  1  0
  5  6  1  0
  6  7  2  0
  6  8  1  0
  8  9  2  0
  9 10  1  0
 10 11  2  0
 11 12  1  0
 12 13  2  0
 13 14  1  0
 14 15  2  0
 14 16  1  0
 16 17  1  0
 17 18  2  0
 18 19  1  0
 19 20  2  0
 20 21  1  0
 21 22  2  0
 22 23  1  0
 23 24  2  0
 24 25  1  0
 25 26  1  0
 26 27  1  0
 27 28  1  0
 28 29  1  0
 29 30  1  0
 29 31  1  0
 13 32  1  0
 32 33  2  0
 33 34  1  0
 34  2  1  0
 34  8  1  0
 33 10  1  0
 25 17  1  0
 24 19  1  0
M  END
$$$$
