
     RDKit          3D

 27 29  0  0  0  0  0  0  0  0999 V2000
  -11.8918   -5.2850  -32.9898 C   0  0  0  0  0  0  0  0  0  0  0  0
  -13.1690   -5.1948  -33.7824 C   0  0  0  0  0  0  0  0  0  0  0  0
  -14.2533   -6.0800  -33.2279 C   0  0  0  0  0  0  0  0  0  0  0  0
  -13.5726   -3.7806  -33.9226 C   0  0  0  0  0  0  0  0  0  0  0  0
  -13.6229   -3.0591  -35.0868 C   0  0  0  0  0  0  0  0  0  0  0  0
  -13.2983   -3.4485  -36.4310 N   0  0  0  0  0  0  0  0  0  0  0  0
  -13.3650   -2.4833  -37.4826 C   0  0  0  0  0  0  0  0  0  0  0  0
  -13.5541   -1.2582  -37.2795 O   0  0  0  0  0  0  0  0  0  0  0  0
  -13.2147   -2.8802  -38.8596 N   0  0  0  0  0  0  0  0  0  0  0  0
  -12.9083   -1.9062  -39.8499 C   0  0  0  0  0  0  0  0  0  0  0  0
  -11.7091   -1.9193  -40.5261 C   0  0  0  0  0  0  0  0  0  0  0  0
  -11.4830   -0.9450  -41.4705 C   0  0  0  0  0  0  0  0  0  0  0  0
  -12.4148    0.0325  -41.7540 C   0  0  0  0  0  0  0  0  0  0  0  0
  -12.1926    1.2836  -42.9277 Cl  0  0  0  0  0  0  0  0  0  0  0  0
  -13.6011   -0.0028  -41.0447 C   0  0  0  0  0  0  0  0  0  0  0  0
  -13.8729   -0.9483  -40.0981 C   0  0  0  0  0  0  0  0  0  0  0  0
  -14.0629   -1.8031  -34.7093 C   0  0  0  0  0  0  0  0  0  0  0  0
  -14.2554   -0.8152  -35.4619 O   0  0  0  0  0  0  0  0  0  0  0  0
  -14.2740   -1.7561  -33.3647 N   0  0  0  0  0  0  0  0  0  0  0  0
  -14.7269   -0.6194  -32.6480 C   0  0  0  0  0  0  0  0  0  0  0  0
  -13.8884    0.4201  -32.3337 C   0  0  0  0  0  0  0  0  0  0  0  0
  -14.3077    1.5398  -31.6350 C   0  0  0  0  0  0  0  0  0  0  0  0
  -15.6400    1.6179  -31.2313 C   0  0  0  0  0  0  0  0  0  0  0  0
  -16.4906    0.5856  -31.5385 C   0  0  0  0  0  0  0  0  0  0  0  0
  -16.0403   -0.5161  -32.2363 C   0  0  0  0  0  0  0  0  0  0  0  0
  -13.9735   -2.9516  -32.9165 N   0  0  0  0  0  0  0  0  0  0  0  0
  -14.0557   -3.3481  -31.5237 C   0  0  0  0  0  0  0  0  0  0  0  0
  1  2  1  0
  2  3  1  0
  2  4  1  0
  4  5  2  0
  5  6  1  0
  6  7  1  0
  7  8  2  0
  7  9  1  0
  9 10  1  0
 10 11  2  0
 11 12  1  0
 12 13  2  0
 13 14  1  0
 13 15  1  0
 15 16  2  0
  5 17  1  0
 17 18  2  0
 17 19  1  0
 19 20  1  0
 20 21  2  0
 21 22  1  0
 22 23  2  0
 23 24  1  0
 24 25  2  0
 19 26  1  0
 26 27  1  0
 26  4  1  0
 16 10  1  0
 25 20  1  0
M  END
$$$$
