
     RDKit          3D

 18 19  0  0  0  0  0  0  0  0999 V2000
  -12.9576   47.2498  -17.1429 C   0  0  0  0  0  0  0  0  0  0  0  0
  -13.6526   46.7591  -18.4130 C   0  0  0  0  0  0  0  0  0  0  0  0
  -14.1332   45.3269  -18.1908 C   0  0  0  0  0  0  0  0  0  0  0  0
  -15.5069   45.2897  -18.4987 O   0  0  0  0  0  0  0  0  0  0  0  0
  -16.0712   44.2865  -19.2785 C   0  0  0  0  0  0  0  0  0  0  0  0
  -16.1337   42.9821  -18.8203 C   0  0  0  0  0  0  0  0  0  0  0  0
  -16.6886   41.9814  -19.5856 C   0  0  0  0  0  0  0  0  0  0  0  0
  -17.2120   42.2337  -20.8542 C   0  0  0  0  0  0  0  0  0  0  0  0
  -17.8066   41.1236  -21.5940 C   0  0  0  0  0  0  0  0  0  0  0  0
  -18.5324   40.1827  -21.0390 C   0  0  0  0  0  0  0  0  0  0  0  0
  -19.4330   38.8301  -21.8399 S   0  0  0  0  0  0  0  0  0  0  0  0
  -19.5397   37.8236  -20.3516 C   0  0  0  0  0  0  0  0  0  0  0  0
  -19.7207   36.5723  -20.2759 O   0  0  0  0  0  0  0  0  0  0  0  0
  -19.3747   38.7517  -19.2900 N   0  0  0  0  0  0  0  0  0  0  0  0
  -18.8481   39.9922  -19.6370 C   0  0  0  0  0  0  0  0  0  0  0  0
  -18.6546   40.9204  -18.7590 O   0  0  0  0  0  0  0  0  0  0  0  0
  -17.1509   43.5301  -21.3091 C   0  0  0  0  0  0  0  0  0  0  0  0
  -16.5873   44.5337  -20.5271 C   0  0  0  0  0  0  0  0  0  0  0  0
  1  2  1  0
  2  3  1  0
  3  4  1  0
  4  5  1  0
  5  6  2  0
  6  7  1  0
  7  8  2  0
  8  9  1  0
  9 10  2  0
 10 11  1  0
 11 12  1  0
 12 13  2  0
 12 14  1  0
 14 15  1  0
 15 16  2  0
  8 17  1  0
 17 18  2  0
 18  5  1  0
 15 10  1  0
M  END
$$$$
