
     RDKit          3D

 32 35  0  0  0  0  0  0  0  0999 V2000
  -19.6250   44.6135  -26.0138 C   0  0  0  0  0  0  0  0  0  0  0  0
  -19.6549   45.3081  -24.6636 C   0  0  0  0  0  0  0  0  0  0  0  0
  -21.0573   45.8421  -24.4326 C   0  0  0  0  0  0  0  0  0  0  0  0
  -19.3913   44.3092  -23.6619 N   0  0  0  0  0  0  0  0  0  0  0  0
  -18.0105   44.4224  -23.2299 C   0  0  0  0  0  0  0  0  0  0  0  0
  -17.6860   43.4379  -22.1353 C   0  0  1  0  0  0  0  0  0  0  0  0
  -17.5969   42.0935  -22.6902 C   0  0  0  0  0  0  0  0  0  0  0  0
  -16.4770   41.8512  -23.3143 O   0  0  0  0  0  0  0  0  0  0  0  0
  -18.4831   41.0248  -22.6781 N   0  0  0  0  0  0  0  0  0  0  0  0
  -17.9508   39.6880  -23.0365 C   0  0  0  0  0  0  0  0  0  0  0  0
  -18.2496   38.6734  -21.9582 C   0  0  0  0  0  0  0  0  0  0  0  0
  -19.6613   38.6257  -21.7418 N   0  0  0  0  0  0  0  0  0  0  0  0
  -20.4933   37.4906  -21.7516 C   0  0  0  0  0  0  0  0  0  0  0  0
  -21.8263   37.5984  -21.8865 N   0  0  0  0  0  0  0  0  0  0  0  0
  -22.6425   36.5346  -21.8989 C   0  0  0  0  0  0  0  0  0  0  0  0
  -22.1047   35.3150  -21.7715 N   0  0  0  0  0  0  0  0  0  0  0  0
  -20.7631   35.1004  -21.6292 C   0  0  0  0  0  0  0  0  0  0  0  0
  -19.9605   36.2296  -21.6221 C   0  0  0  0  0  0  0  0  0  0  0  0
  -18.5685   35.8023  -21.4718 C   0  0  2  0  0  0  0  0  0  0  0  0
  -17.7744   35.9355  -22.7521 C   0  0  0  0  0  0  0  0  0  0  0  0
  -18.6406   34.3998  -20.9731 C   0  0  0  0  0  0  0  0  0  0  0  0
  -19.9732   33.8554  -21.4761 C   0  0  1  0  0  0  0  0  0  0  0  0
  -20.5304   32.9488  -20.6159 O   0  0  0  0  0  0  0  0  0  0  0  0
  -20.3221   39.8860  -21.4687 C   0  0  0  0  0  0  0  0  0  0  0  0
  -19.8850   41.0223  -22.3629 C   0  0  0  0  0  0  0  0  0  0  0  0
  -16.6182   43.8609  -21.2305 C   0  0  0  0  0  0  0  0  0  0  0  0
  -16.6458   43.5384  -19.9030 C   0  0  0  0  0  0  0  0  0  0  0  0
  -15.6310   43.9475  -19.0404 C   0  0  0  0  0  0  0  0  0  0  0  0
  -14.5800   44.6904  -19.5333 C   0  0  0  0  0  0  0  0  0  0  0  0
  -13.2999   45.2035  -18.4325 Cl  0  0  0  0  0  0  0  0  0  0  0  0
  -14.5277   45.0261  -20.8556 C   0  0  0  0  0  0  0  0  0  0  0  0
  -15.5482   44.6059  -21.6841 C   0  0  0  0  0  0  0  0  0  0  0  0
  1  2  1  0
  2  3  1  0
  2  4  1  0
  4  5  1  0
  6  5  1  6
  6  7  1  0
  7  8  2  0
  7  9  1  0
  9 10  1  0
 10 11  1  0
 11 12  1  0
 12 13  1  0
 13 14  2  0
 14 15  1  0
 15 16  2  0
 16 17  1  0
 17 18  2  0
 18 19  1  0
 19 20  1  6
 19 21  1  0
 21 22  1  0
 22 23  1  1
 12 24  1  0
 24 25  1  0
  6 26  1  0
 26 27  2  0
 27 28  1  0
 28 29  2  0
 29 30  1  0
 29 31  1  0
 31 32  2  0
 25  9  1  0
 32 26  1  0
 18 13  1  0
 22 17  1  0
M  END
$$$$
