
     RDKit          3D

 19 19  0  0  0  0  0  0  0  0999 V2000
  -25.2020   37.3201  -24.9212 C   0  0  0  0  0  0  0  0  0  0  0  0
  -24.8256   36.5084  -26.1387 C   0  0  0  0  0  0  0  0  0  0  0  0
  -25.8848   36.4722  -27.1825 C   0  0  0  0  0  0  0  0  0  0  0  0
  -23.4473   36.8660  -26.6367 C   0  0  2  0  0  0  0  0  0  0  0  0
  -22.9607   35.7486  -27.4593 N   0  0  0  0  0  0  0  0  0  0  0  0
  -22.4444   37.0271  -25.5539 C   0  0  0  0  0  0  0  0  0  0  0  0
  -22.2978   38.1121  -24.9048 O   0  0  0  0  0  0  0  0  0  0  0  0
  -21.5775   35.9674  -25.1715 N   0  0  0  0  0  0  0  0  0  0  0  0
  -20.5561   36.1518  -24.1280 C   0  0  1  0  0  0  0  0  0  0  0  0
  -20.2713   34.7830  -23.5870 C   0  0  0  0  0  0  0  0  0  0  0  0
  -19.4400   33.9395  -24.4640 C   0  0  0  0  0  0  0  0  0  0  0  0
  -18.1919   33.4740  -24.1062 C   0  0  0  0  0  0  0  0  0  0  0  0
  -17.4400   32.6790  -24.9601 C   0  0  0  0  0  0  0  0  0  0  0  0
  -17.9128   32.3260  -26.1958 C   0  0  0  0  0  0  0  0  0  0  0  0
  -19.1590   32.7821  -26.5711 C   0  0  0  0  0  0  0  0  0  0  0  0
  -19.8982   33.5726  -25.7129 C   0  0  0  0  0  0  0  0  0  0  0  0
  -19.3606   36.8248  -24.6972 C   0  0  0  0  0  0  0  0  0  0  0  0
  -18.3740   37.1651  -23.9986 O   0  0  0  0  0  0  0  0  0  0  0  0
  -19.2647   37.1219  -26.0637 O   0  0  0  0  0  0  0  0  0  0  0  0
  1  2  1  0
  2  3  1  0
  2  4  1  0
  4  5  1  6
  4  6  1  0
  6  7  2  0
  6  8  1  0
  8  9  1  0
  9 10  1  6
 10 11  1  0
 11 12  2  0
 12 13  1  0
 13 14  2  0
 14 15  1  0
 15 16  2  0
  9 17  1  0
 17 18  2  0
 17 19  1  0
 16 11  1  0
M  END
$$$$
