
     RDKit          3D

 20 23  0  0  0  0  0  0  0  0999 V2000
  -23.2083   43.1551  -23.4581 C   0  0  0  0  0  0  0  0  0  0  0  0
  -21.8510   43.2561  -22.8832 C   0  0  0  0  0  0  0  0  0  0  0  0
  -21.1728   44.4718  -22.8122 C   0  0  0  0  0  0  0  0  0  0  0  0
  -19.9129   44.5154  -22.2697 C   0  0  0  0  0  0  0  0  0  0  0  0
  -19.3711   43.3896  -21.8241 N   0  0  0  0  0  0  0  0  0  0  0  0
  -19.9454   42.1968  -21.8538 C   0  0  0  0  0  0  0  0  0  0  0  0
  -21.2170   42.1303  -22.3973 C   0  0  0  0  0  0  0  0  0  0  0  0
  -22.0302   40.9882  -22.5400 N   0  0  0  0  0  0  0  0  0  0  0  0
  -21.6305   39.6317  -22.4222 C   0  0  0  0  0  0  0  0  0  0  0  0
  -22.4512   38.8234  -22.9127 O   0  0  0  0  0  0  0  0  0  0  0  0
  -20.4220   39.1173  -21.8179 C   0  0  0  0  0  0  0  0  0  0  0  0
  -20.4541   37.7516  -21.7569 C   0  0  0  0  0  0  0  0  0  0  0  0
  -19.3609   37.0815  -21.1987 C   0  0  0  0  0  0  0  0  0  0  0  0
  -18.3006   37.8025  -20.7338 C   0  0  0  0  0  0  0  0  0  0  0  0
  -18.3268   39.1386  -20.8209 N   0  0  0  0  0  0  0  0  0  0  0  0
  -19.3563   39.8249  -21.3497 C   0  0  0  0  0  0  0  0  0  0  0  0
  -19.0777   41.2301  -21.2957 N   0  0  0  0  0  0  0  0  0  0  0  0
  -17.8735   41.5994  -20.6462 C   0  0  0  0  0  0  0  0  0  0  0  0
  -17.8722   41.1761  -19.1577 C   0  0  0  0  0  0  0  0  0  0  0  0
  -17.6131   42.5886  -19.6485 C   0  0  0  0  0  0  0  0  0  0  0  0
  1  2  1  0
  2  3  2  0
  3  4  1  0
  4  5  2  0
  5  6  1  0
  6  7  2  0
  7  8  1  0
  8  9  1  0
  9 10  2  0
  9 11  1  0
 11 12  2  0
 12 13  1  0
 13 14  2  0
 14 15  1  0
 15 16  2  0
 16 17  1  0
 17 18  1  0
 18 19  1  0
 19 20  1  0
  7  2  1  0
 16 11  1  0
 20 18  1  0
 17  6  1  0
M  END
$$$$
