
     RDKit          3D

 20 22  0  0  0  0  0  0  0  0999 V2000
   -9.7965   11.0886  -25.9413 C   0  0  0  0  0  0  0  0  0  0  0  0
  -10.0996   12.0328  -27.0210 N   0  0  0  0  0  0  0  0  0  0  0  0
   -9.0183   12.7790  -27.5732 C   0  0  0  0  0  0  0  0  0  0  0  0
  -11.4496   12.1447  -27.4490 C   0  0  0  0  0  0  0  0  0  0  0  0
  -12.0653   13.3688  -27.5882 C   0  0  0  0  0  0  0  0  0  0  0  0
  -13.3669   13.5046  -27.9997 C   0  0  0  0  0  0  0  0  0  0  0  0
  -14.1141   12.3598  -28.2944 C   0  0  0  0  0  0  0  0  0  0  0  0
  -15.4809   12.5125  -28.7770 C   0  0  0  0  0  0  0  0  0  0  0  0
  -16.0870   13.6649  -28.7429 C   0  0  0  0  0  0  0  0  0  0  0  0
  -15.6636   14.8636  -28.0299 C   0  0  0  0  0  0  0  0  0  0  0  0
  -14.6393   15.0682  -27.3274 O   0  0  0  0  0  0  0  0  0  0  0  0
  -16.6907   15.8304  -28.2944 N   0  0  0  0  0  0  0  0  0  0  0  0
  -17.6783   15.2413  -29.1244 C   0  0  0  0  0  0  0  0  0  0  0  0
  -18.8593   15.7498  -29.6574 C   0  0  0  0  0  0  0  0  0  0  0  0
  -19.6726   14.9716  -30.4519 C   0  0  0  0  0  0  0  0  0  0  0  0
  -19.3582   13.6641  -30.7538 C   0  0  0  0  0  0  0  0  0  0  0  0
  -18.1924   13.1511  -30.2318 C   0  0  0  0  0  0  0  0  0  0  0  0
  -17.3749   13.9376  -29.4316 C   0  0  0  0  0  0  0  0  0  0  0  0
  -13.5093   11.1302  -28.1602 C   0  0  0  0  0  0  0  0  0  0  0  0
  -12.2012   11.0487  -27.7434 C   0  0  0  0  0  0  0  0  0  0  0  0
  1  2  1  0
  2  3  1  0
  2  4  1  0
  4  5  2  0
  5  6  1  0
  6  7  2  0
  7  8  1  0
  8  9  2  0
  9 10  1  0
 10 11  2  0
 10 12  1  0
 12 13  1  0
 13 14  2  0
 14 15  1  0
 15 16  2  0
 16 17  1  0
 17 18  2  0
  7 19  1  0
 19 20  2  0
 20  4  1  0
 18  9  1  0
 18 13  1  0
M  END
$$$$
