
     RDKit          3D

 29 33  0  0  0  0  0  0  0  0999 V2000
  -23.4598   16.2638  -30.4719 O   0  0  0  0  0  0  0  0  0  0  0  0
  -22.3105   16.1618  -31.0015 C   0  0  0  0  0  0  0  0  0  0  0  0
  -21.6348   14.8674  -31.2705 C   0  0  0  0  0  0  0  0  0  0  0  0
  -20.2523   15.2878  -31.7247 C   0  0  0  0  0  0  0  0  0  0  0  0
  -19.3378   15.0134  -30.6465 N   0  0  0  0  0  0  0  0  0  0  0  0
  -18.5225   13.8818  -31.0496 C   0  0  0  0  0  0  0  0  0  0  0  0
  -17.0555   14.2772  -30.9696 C   0  0  0  0  0  0  0  0  0  0  0  0
  -16.7388   14.7248  -29.6619 N   0  0  0  0  0  0  0  0  0  0  0  0
  -16.7264   13.6474  -28.7136 C   0  0  0  0  0  0  0  0  0  0  0  0
  -15.3610   13.4424  -28.2048 C   0  0  0  0  0  0  0  0  0  0  0  0
  -14.9054   13.8022  -26.9591 C   0  0  0  0  0  0  0  0  0  0  0  0
  -13.5936   13.5647  -26.5584 C   0  0  0  0  0  0  0  0  0  0  0  0
  -12.6932   12.9564  -27.3974 C   0  0  0  0  0  0  0  0  0  0  0  0
  -13.1220   12.5849  -28.6520 C   0  0  0  0  0  0  0  0  0  0  0  0
  -14.4207   12.8242  -29.0386 C   0  0  0  0  0  0  0  0  0  0  0  0
  -12.0124   11.9970  -29.2824 O   0  0  0  0  0  0  0  0  0  0  0  0
  -10.8375   12.4327  -28.6188 C   0  0  0  0  0  0  0  0  0  0  0  0
  -11.3431   12.5913  -27.2861 O   0  0  0  0  0  0  0  0  0  0  0  0
  -17.5794   15.8021  -29.1972 C   0  0  0  0  0  0  0  0  0  0  0  0
  -18.5570   16.1577  -30.2727 C   0  0  0  0  0  0  0  0  0  0  0  0
  -20.3159   16.7254  -31.9972 C   0  0  0  0  0  0  0  0  0  0  0  0
  -19.4950   17.4290  -32.6317 O   0  0  0  0  0  0  0  0  0  0  0  0
  -21.4963   17.2472  -31.4157 N   0  0  0  0  0  0  0  0  0  0  0  0
  -21.8391   18.6176  -31.2594 C   0  0  0  0  0  0  0  0  0  0  0  0
  -22.9699   19.1903  -31.7980 C   0  0  0  0  0  0  0  0  0  0  0  0
  -23.2650   20.5268  -31.6200 C   0  0  0  0  0  0  0  0  0  0  0  0
  -22.3866   21.2839  -30.8791 C   0  0  0  0  0  0  0  0  0  0  0  0
  -21.2534   20.7536  -30.3277 C   0  0  0  0  0  0  0  0  0  0  0  0
  -20.9837   19.4090  -30.5234 C   0  0  0  0  0  0  0  0  0  0  0  0
  1  2  2  0
  2  3  1  0
  3  4  1  0
  4  5  1  0
  5  6  1  0
  6  7  1  0
  7  8  1  0
  8  9  1  0
  9 10  1  0
 10 11  2  0
 11 12  1  0
 12 13  2  0
 13 14  1  0
 14 15  2  0
 14 16  1  0
 16 17  1  0
 17 18  1  0
  8 19  1  0
 19 20  1  0
  4 21  1  0
 21 22  2  0
 21 23  1  0
 23 24  1  0
 24 25  2  0
 25 26  1  0
 26 27  2  0
 27 28  1  0
 28 29  2  0
 23  2  1  0
 29 24  1  0
 20  5  1  0
 15 10  1  0
 18 13  1  0
M  END
$$$$
