
     RDKit          3D

 38 42  0  0  0  0  0  0  0  0999 V2000
  -30.7656    5.9512  -30.3791 N   0  0  0  0  0  0  0  0  0  0  0  0
  -30.8681    6.2856  -29.2589 C   0  0  0  0  0  0  0  0  0  0  0  0
  -31.0166    6.6926  -27.9074 C   0  0  0  0  0  0  0  0  0  0  0  0
  -32.2506    6.8166  -27.3519 C   0  0  0  0  0  0  0  0  0  0  0  0
  -32.3768    7.2224  -26.0144 C   0  0  0  0  0  0  0  0  0  0  0  0
  -31.2940    7.5052  -25.2272 C   0  0  0  0  0  0  0  0  0  0  0  0
  -31.4034    7.9269  -23.8090 C   0  0  0  0  0  0  0  0  0  0  0  0
  -31.9862    9.1515  -23.6494 O   0  0  0  0  0  0  0  0  0  0  0  0
  -31.2758   10.1092  -22.9943 C   0  0  0  0  0  0  0  0  0  0  0  0
  -30.7556    9.6665  -21.6325 C   0  0  1  0  0  0  0  0  0  0  0  0
  -29.5930   10.2964  -21.3314 O   0  0  0  0  0  0  0  0  0  0  0  0
  -29.6572   10.9152  -20.0900 C   0  0  1  0  0  0  0  0  0  0  0  0
  -29.8140   12.3382  -20.2052 N   0  0  0  0  0  0  0  0  0  0  0  0
  -29.4489   12.9983  -21.3447 C   0  0  0  0  0  0  0  0  0  0  0  0
  -28.8777   12.4080  -22.5013 N   0  0  0  0  0  0  0  0  0  0  0  0
  -28.3763   13.2709  -23.5458 C   0  0  0  0  0  0  0  0  0  0  0  0
  -27.0168   13.7528  -23.2664 C   0  0  0  0  0  0  0  0  0  0  0  0
  -25.8730   12.9955  -23.3697 C   0  0  0  0  0  0  0  0  0  0  0  0
  -24.6114   13.4575  -23.1089 C   0  0  0  0  0  0  0  0  0  0  0  0
  -24.4703   14.7848  -22.7115 C   0  0  0  0  0  0  0  0  0  0  0  0
  -22.9233   15.4838  -22.3505 Cl  0  0  0  0  0  0  0  0  0  0  0  0
  -25.5978   15.5718  -22.5976 C   0  0  0  0  0  0  0  0  0  0  0  0
  -25.4905   17.2601  -22.0952 Cl  0  0  0  0  0  0  0  0  0  0  0  0
  -26.8361   15.0787  -22.8651 C   0  0  0  0  0  0  0  0  0  0  0  0
  -29.7231   14.2970  -21.1558 N   0  0  0  0  0  0  0  0  0  0  0  0
  -30.2530   14.5040  -19.9346 C   0  0  0  0  0  0  0  0  0  0  0  0
  -30.7000   15.6347  -19.2650 C   0  0  0  0  0  0  0  0  0  0  0  0
  -30.6297   16.8953  -19.9044 N   0  0  0  0  0  0  0  0  0  0  0  0
  -31.1782   15.4572  -18.0321 N   0  0  0  0  0  0  0  0  0  0  0  0
  -31.2263   14.2410  -17.4612 C   0  0  0  0  0  0  0  0  0  0  0  0
  -30.7877   13.1601  -18.1284 N   0  0  0  0  0  0  0  0  0  0  0  0
  -30.2973   13.2401  -19.3558 C   0  0  0  0  0  0  0  0  0  0  0  0
  -30.7954   10.2262  -19.3669 C   0  0  2  0  0  0  0  0  0  0  0  0
  -30.3351    8.9325  -19.0289 O   0  0  0  0  0  0  0  0  0  0  0  0
  -31.7301   10.0437  -20.5445 C   0  0  2  0  0  0  0  0  0  0  0  0
  -32.6711    9.0460  -20.3064 O   0  0  0  0  0  0  0  0  0  0  0  0
  -30.0311    7.3715  -25.8177 C   0  0  0  0  0  0  0  0  0  0  0  0
  -29.8912    6.9739  -27.1302 C   0  0  0  0  0  0  0  0  0  0  0  0
  1  2  3  0
  2  3  1  0
  3  4  2  0
  4  5  1  0
  5  6  2  0
  6  7  1  0
  7  8  1  0
  8  9  1  0
 10  9  1  6
 10 11  1  0
 11 12  1  0
 12 13  1  6
 13 14  1  0
 14 15  1  0
 15 16  1  0
 16 17  1  0
 17 18  2  0
 18 19  1  0
 19 20  2  0
 20 21  1  0
 20 22  1  0
 22 23  1  0
 22 24  2  0
 14 25  2  0
 25 26  1  0
 26 27  2  0
 27 28  1  0
 27 29  1  0
 29 30  2  0
 30 31  1  0
 31 32  2  0
 12 33  1  0
 33 34  1  6
 33 35  1  0
 35 36  1  1
  6 37  1  0
 37 38  2  0
 38  3  1  0
 35 10  1  0
 32 13  1  0
 24 17  1  0
 32 26  1  0
M  END
$$$$
