
     RDKit          3D

 18 20  0  0  0  0  0  0  0  0999 V2000
  -20.1202   45.5729  -19.0773 N   0  0  0  0  0  0  0  0  0  0  0  0
  -19.5707   44.2610  -19.2120 C   0  0  0  0  0  0  0  0  0  0  0  0
  -18.4627   44.0399  -19.9677 N   0  0  0  0  0  0  0  0  0  0  0  0
  -17.9235   42.8143  -20.1123 C   0  0  0  0  0  0  0  0  0  0  0  0
  -16.7916   42.5979  -20.8861 O   0  0  0  0  0  0  0  0  0  0  0  0
  -16.2292   43.6798  -21.6022 C   0  0  0  0  0  0  0  0  0  0  0  0
  -15.0120   44.2034  -20.9644 C   0  0  0  0  0  0  0  0  0  0  0  0
  -13.8077   43.6576  -20.7137 C   0  0  0  0  0  0  0  0  0  0  0  0
  -12.8345   44.3446  -20.1070 C   0  0  0  0  0  0  0  0  0  0  0  0
  -11.0630   43.6381  -19.7037 Br  0  0  0  0  0  0  0  0  0  0  0  0
  -13.1398   45.6597  -19.7489 C   0  0  0  0  0  0  0  0  0  0  0  0
  -14.8371   45.8775  -20.2998 S   0  0  0  0  0  0  0  0  0  0  0  0
  -18.5316   41.7762  -19.4660 C   0  0  0  0  0  0  0  0  0  0  0  0
  -18.2423   40.4663  -19.4134 N   0  0  0  0  0  0  0  0  0  0  0  0
  -19.1707   39.8774  -18.6256 C   0  0  0  0  0  0  0  0  0  0  0  0
  -20.0481   40.7765  -18.1717 N   0  0  0  0  0  0  0  0  0  0  0  0
  -19.6610   41.9703  -18.6895 C   0  0  0  0  0  0  0  0  0  0  0  0
  -20.1429   43.2128  -18.5897 N   0  0  0  0  0  0  0  0  0  0  0  0
  1  2  1  0
  2  3  2  0
  3  4  1  0
  4  5  1  0
  5  6  1  0
  6  7  1  0
  7  8  2  0
  8  9  1  0
  9 10  1  0
  9 11  2  0
 11 12  1  0
  4 13  2  0
 13 14  1  0
 14 15  2  0
 15 16  1  0
 16 17  1  0
 17 18  2  0
 18  2  1  0
 12  7  1  0
 17 13  1  0
M  END
$$$$
