
     RDKit          3D

 22 25  0  0  0  0  0  0  0  0999 V2000
  -17.6362    0.7052  -14.0865 C   0  0  0  0  0  0  0  0  0  0  0  0
  -16.2450    0.8191  -14.2936 O   0  0  0  0  0  0  0  0  0  0  0  0
  -15.6539    2.0629  -14.1777 C   0  0  0  0  0  0  0  0  0  0  0  0
  -16.2559    3.2031  -14.6996 C   0  0  0  0  0  0  0  0  0  0  0  0
  -15.6408    4.4219  -14.5663 C   0  0  0  0  0  0  0  0  0  0  0  0
  -14.4238    4.5703  -13.9228 C   0  0  0  0  0  0  0  0  0  0  0  0
  -13.8048    5.8828  -13.8031 C   0  0  0  0  0  0  0  0  0  0  0  0
  -14.4583    7.0052  -14.2495 C   0  0  0  0  0  0  0  0  0  0  0  0
  -13.8404    8.2277  -14.1188 C   0  0  0  0  0  0  0  0  0  0  0  0
  -12.5871    8.3521  -13.5532 C   0  0  0  0  0  0  0  0  0  0  0  0
  -12.0099    7.2050  -13.1391 N   0  0  0  0  0  0  0  0  0  0  0  0
  -12.5837    6.0391  -13.2565 N   0  0  0  0  0  0  0  0  0  0  0  0
  -12.1686    9.7571  -13.5383 C   0  0  0  0  0  0  0  0  0  0  0  0
  -10.9981   10.3519  -13.0711 C   0  0  0  0  0  0  0  0  0  0  0  0
  -10.8154   11.7157  -13.1604 C   0  0  0  0  0  0  0  0  0  0  0  0
  -11.8171   12.4830  -13.7230 C   0  0  0  0  0  0  0  0  0  0  0  0
  -12.9727   11.8908  -14.1836 C   0  0  0  0  0  0  0  0  0  0  0  0
  -13.1644   10.5299  -14.0989 C   0  0  0  0  0  0  0  0  0  0  0  0
  -14.2295    9.6075  -14.4754 C   0  0  0  0  0  0  0  0  0  0  0  0
  -15.3020    9.9267  -15.0137 O   0  0  0  0  0  0  0  0  0  0  0  0
  -13.8492    3.4403  -13.4177 C   0  0  0  0  0  0  0  0  0  0  0  0
  -14.4384    2.1787  -13.5295 C   0  0  0  0  0  0  0  0  0  0  0  0
  1  2  1  0
  2  3  1  0
  3  4  2  0
  4  5  1  0
  5  6  2  0
  6  7  1  0
  7  8  2  0
  8  9  1  0
  9 10  2  0
 10 11  1  0
 11 12  2  0
 10 13  1  0
 13 14  2  0
 14 15  1  0
 15 16  2  0
 16 17  1  0
 17 18  2  0
 18 19  1  0
 19 20  2  0
  6 21  1  0
 21 22  2  0
 22  3  1  0
 12  7  1  0
 18 13  1  0
 19  9  1  0
M  END
$$$$
