
     RDKit          3D

 27 28  0  0  0  0  0  0  0  0999 V2000
  -20.5918   38.6043  -22.3738 O   0  0  0  0  0  0  0  0  0  0  0  0
  -20.6988   38.6940  -21.0882 C   0  0  0  0  0  0  0  0  0  0  0  0
  -21.6350   37.9151  -20.4074 N   0  0  0  0  0  0  0  0  0  0  0  0
  -22.4228   37.0801  -21.1605 O   0  0  0  0  0  0  0  0  0  0  0  0
  -19.8154   39.6347  -20.4179 C   0  0  0  0  0  0  0  0  0  0  0  0
  -19.0621   40.5353  -21.2039 C   0  0  0  0  0  0  0  0  0  0  0  0
  -18.2773   41.4407  -20.6390 N   0  0  0  0  0  0  0  0  0  0  0  0
  -18.1389   41.5715  -19.2838 C   0  0  0  0  0  0  0  0  0  0  0  0
  -17.3198   42.6076  -18.7675 N   0  0  0  0  0  0  0  0  0  0  0  0
  -16.6214   43.4713  -19.7006 C   0  0  0  0  0  0  0  0  0  0  0  0
  -15.3844   44.0445  -19.1549 C   0  0  0  0  0  0  0  0  0  0  0  0
  -14.1757   43.4400  -19.2995 C   0  0  0  0  0  0  0  0  0  0  0  0
  -13.0380   44.0141  -18.7363 C   0  0  0  0  0  0  0  0  0  0  0  0
  -11.6947   43.3446  -18.8929 C   0  0  0  0  0  0  0  0  0  0  0  0
  -11.0037   43.9813  -19.8885 F   0  0  0  0  0  0  0  0  0  0  0  0
  -11.0953   43.3634  -17.6679 F   0  0  0  0  0  0  0  0  0  0  0  0
  -11.8777   42.0436  -19.3063 F   0  0  0  0  0  0  0  0  0  0  0  0
  -13.1826   45.1907  -18.0427 C   0  0  0  0  0  0  0  0  0  0  0  0
  -14.4072   45.8129  -17.8923 C   0  0  0  0  0  0  0  0  0  0  0  0
  -14.5169   47.0918  -17.1046 C   0  0  0  0  0  0  0  0  0  0  0  0
  -14.9508   46.7751  -15.8437 F   0  0  0  0  0  0  0  0  0  0  0  0
  -13.2812   47.6613  -17.0516 F   0  0  0  0  0  0  0  0  0  0  0  0
  -15.4528   47.9170  -17.7025 F   0  0  0  0  0  0  0  0  0  0  0  0
  -15.4978   45.2403  -18.4479 C   0  0  0  0  0  0  0  0  0  0  0  0
  -18.8462   40.7239  -18.5390 N   0  0  0  0  0  0  0  0  0  0  0  0
  -19.6589   39.7843  -19.0667 C   0  0  0  0  0  0  0  0  0  0  0  0
  -20.2763   39.0426  -18.2797 O   0  0  0  0  0  0  0  0  0  0  0  0
  1  2  2  0
  2  3  1  0
  3  4  1  0
  2  5  1  0
  5  6  2  0
  6  7  1  0
  7  8  1  0
  8  9  1  0
  9 10  1  0
 10 11  1  0
 11 12  2  0
 12 13  1  0
 13 14  1  0
 14 15  1  0
 14 16  1  0
 14 17  1  0
 13 18  2  0
 18 19  1  0
 19 20  1  0
 20 21  1  0
 20 22  1  0
 20 23  1  0
 19 24  2  0
  8 25  2  0
 25 26  1  0
 26 27  2  0
 26  5  1  0
 24 11  1  0
M  END
$$$$
