
     RDKit          3D

 13 12  0  0  0  0  0  0  0  0999 V2000
  -17.0685   13.9505  -30.9741 C   0  0  0  0  0  0  0  0  0  0  0  0
  -17.5462   13.8212  -29.5661 C   0  0  0  0  0  0  0  0  0  0  0  0
  -16.5341   14.1814  -28.5924 N   0  0  0  0  0  4  0  0  0  0  0  0
  -16.6042   15.5943  -28.3825 C   0  0  0  0  0  0  0  0  0  0  0  0
  -16.9333   13.5425  -27.3317 C   0  0  0  0  0  0  0  0  0  0  0  0
  -15.2631   13.6929  -28.9133 C   0  0  0  0  0  0  0  0  0  0  0  0
  -15.1582   12.4642  -29.5306 C   0  0  0  0  0  0  0  0  0  0  0  0
  -13.9157   11.9252  -29.8748 C   0  0  0  0  0  0  0  0  0  0  0  0
  -12.7754   12.6636  -29.5777 C   0  0  0  0  0  0  0  0  0  0  0  0
  -12.8507   13.8960  -28.9603 C   0  0  0  0  0  0  0  0  0  0  0  0
  -11.7450   14.6429  -28.6568 O   0  0  0  0  0  0  0  0  0  0  0  0
  -14.1061   14.3738  -28.6457 C   0  0  0  0  0  0  0  0  0  0  0  0
  -15.5898   13.8625  -29.0944 Cl  0  0  0  0  0 15  0  0  0  0  0  0
  1  2  1  0
  2  3  1  0
  3  4  1  0
  3  5  1  0
  3  6  1  0
  6  7  2  0
  7  8  1  0
  8  9  2  0
  9 10  1  0
 10 11  1  0
 10 12  2  0
 12  6  1  0
M  CHG  2   3   1  13  -1
M  END
$$$$
