
     RDKit          3D

 19 21  0  0  0  0  0  0  0  0999 V2000
  -21.3320   25.6961  -35.9541 C   0  0  0  0  0  0  0  0  0  0  0  0
  -22.6970   25.5454  -36.4156 N   0  0  0  0  0  0  0  0  0  0  0  0
  -23.7151   26.5457  -36.5709 C   0  0  0  0  0  0  0  0  0  0  0  0
  -23.4888   27.7541  -36.2971 O   0  0  0  0  0  0  0  0  0  0  0  0
  -24.9171   25.9551  -37.0504 N   0  0  0  0  0  0  0  0  0  0  0  0
  -24.6500   24.6166  -37.4419 C   0  0  0  0  0  0  0  0  0  0  0  0
  -25.5774   23.5713  -36.9557 C   0  0  0  0  0  0  0  0  0  0  0  0
  -26.8072   24.0253  -36.3097 C   0  0  0  0  0  0  0  0  0  0  0  0
  -27.0818   24.4864  -35.0614 C   0  0  0  0  0  0  0  0  0  0  0  0
  -28.4040   24.7720  -34.9985 N   0  0  0  0  0  0  0  0  0  0  0  0
  -28.9830   24.5058  -36.1754 C   0  0  0  0  0  0  0  0  0  0  0  0
  -30.2882   24.6109  -36.6600 C   0  0  0  0  0  0  0  0  0  0  0  0
  -31.5270   25.2068  -35.5961 Cl  0  0  0  0  0  0  0  0  0  0  0  0
  -30.6213   24.2571  -37.9573 C   0  0  0  0  0  0  0  0  0  0  0  0
  -29.6388   23.7852  -38.8022 C   0  0  0  0  0  0  0  0  0  0  0  0
  -28.3549   23.6837  -38.3200 C   0  0  0  0  0  0  0  0  0  0  0  0
  -28.0138   24.0342  -37.0282 C   0  0  0  0  0  0  0  0  0  0  0  0
  -23.3087   24.3286  -36.8143 C   0  0  0  0  0  0  0  0  0  0  0  0
  -22.7928   23.1943  -36.6573 O   0  0  0  0  0  0  0  0  0  0  0  0
  1  2  1  0
  2  3  1  0
  3  4  2  0
  3  5  1  0
  5  6  1  0
  6  7  1  0
  7  8  1  0
  8  9  2  0
  9 10  1  0
 10 11  1  0
 11 12  2  0
 12 13  1  0
 12 14  1  0
 14 15  2  0
 15 16  1  0
 16 17  2  0
  6 18  1  0
 18 19  2  0
 18  2  1  0
 17  8  1  0
 17 11  1  0
M  END
$$$$
