
     RDKit          3D

 26 27  0  0  0  0  0  0  0  0999 V2000
  -20.1902   18.5137  -36.9684 C   0  0  0  0  0  0  0  0  0  0  0  0
  -19.5546   18.4556  -38.2199 O   0  0  0  0  0  0  0  0  0  0  0  0
  -18.1763   18.5041  -38.3499 C   0  0  0  0  0  0  0  0  0  0  0  0
  -17.5979   18.5744  -39.6016 C   0  0  0  0  0  0  0  0  0  0  0  0
  -16.2239   18.6213  -39.6972 C   0  0  0  0  0  0  0  0  0  0  0  0
  -15.5997   18.6951  -40.9710 N   0  0  0  0  0  0  0  0  0  0  0  0
  -14.1658   18.6458  -41.0916 C   0  0  0  0  0  0  0  0  0  0  0  0
  -16.3869   18.8201  -42.1789 C   0  0  0  0  0  0  0  0  0  0  0  0
  -15.4475   18.5971  -38.5368 C   0  0  0  0  0  0  0  0  0  0  0  0
  -16.0076   18.5271  -37.2775 C   0  0  0  0  0  0  0  0  0  0  0  0
  -15.2210   18.5017  -36.0376 C   0  0  0  0  0  0  0  0  0  0  0  0
  -14.6857   17.1940  -35.7169 N   0  0  0  0  0  0  0  0  0  0  0  0
  -14.6881   16.3176  -36.8720 C   0  0  0  0  0  0  0  0  0  0  0  0
  -15.6222   16.6137  -34.7530 C   0  0  0  0  0  0  0  0  0  0  0  0
  -14.9742   16.5422  -33.3817 C   0  0  0  0  0  0  0  0  0  0  0  0
  -15.8662   15.8887  -32.4135 C   0  0  0  0  0  0  0  0  0  0  0  0
  -17.2085   16.1995  -32.3575 C   0  0  0  0  0  0  0  0  0  0  0  0
  -18.0049   15.5444  -31.4175 C   0  0  0  0  0  0  0  0  0  0  0  0
  -17.4788   14.6055  -30.5570 C   0  0  0  0  0  0  0  0  0  0  0  0
  -18.3127   13.9446  -29.6001 N   0  0  0  0  0  4  0  0  0  0  0  0
  -17.9179   13.7527  -28.4362 O   0  0  0  0  0  0  0  0  0  0  0  0
  -19.5608   13.5133  -29.9556 O   0  0  0  0  0  1  0  0  0  0  0  0
  -16.1342   14.3137  -30.6342 C   0  0  0  0  0  0  0  0  0  0  0  0
  -15.3292   14.9493  -31.5557 C   0  0  0  0  0  0  0  0  0  0  0  0
  -17.3835   18.4813  -37.2087 C   0  0  0  0  0  0  0  0  0  0  0  0
  -17.9663   18.4106  -35.9514 O   0  0  0  0  0  0  0  0  0  0  0  0
  1  2  1  0
  2  3  1  0
  3  4  2  0
  4  5  1  0
  5  6  1  0
  6  7  1  0
  6  8  1  0
  5  9  2  0
  9 10  1  0
 10 11  1  0
 11 12  1  0
 12 13  1  0
 12 14  1  0
 14 15  1  0
 15 16  1  0
 16 17  2  0
 17 18  1  0
 18 19  2  0
 19 20  1  0
 20 21  2  0
 20 22  1  0
 19 23  1  0
 23 24  2  0
 10 25  2  0
 25 26  1  0
 25  3  1  0
 24 16  1  0
M  CHG  2  20   1  22  -1
M  END
$$$$
