
     RDKit          3D

 23 24  0  0  0  0  0  0  0  0999 V2000
  -18.1546    8.7173  -26.5611 C   0  0  0  0  0  0  0  0  0  0  0  0
  -17.3492    9.3874  -27.5571 N   0  0  0  0  0  0  0  0  0  0  0  0
  -17.9556    9.0904  -28.8612 C   0  0  0  0  0  0  0  0  0  0  0  0
  -17.4347   10.8284  -27.3822 C   0  0  0  0  0  0  0  0  0  0  0  0
  -16.6000   11.5517  -28.4132 C   0  0  0  0  0  0  0  0  0  0  0  0
  -16.7694   13.0612  -28.1274 C   0  0  0  0  0  0  0  0  0  0  0  0
  -16.0374   13.8608  -29.0244 N   0  0  0  0  0  0  0  0  0  0  0  0
  -16.7924   14.7433  -29.8959 C   0  0  0  0  0  0  0  0  0  0  0  0
  -17.8912   15.2355  -29.2268 C   0  0  0  0  0  0  0  0  0  0  0  0
  -18.7128   16.0858  -29.8959 C   0  0  0  0  0  0  0  0  0  0  0  0
  -18.4641   16.4502  -31.1994 C   0  0  0  0  0  0  0  0  0  0  0  0
  -17.3513   15.9354  -31.8357 C   0  0  0  0  0  0  0  0  0  0  0  0
  -16.4802   15.0688  -31.2122 C   0  0  0  0  0  0  0  0  0  0  0  0
  -15.3412   14.5975  -32.0172 C   0  0  0  0  0  0  0  0  0  0  0  0
  -13.9974   14.7420  -31.4084 C   0  0  0  0  0  0  0  0  0  0  0  0
  -13.7854   14.1275  -30.0913 C   0  0  0  0  0  0  0  0  0  0  0  0
  -12.4267   13.9180  -29.8989 C   0  0  0  0  0  0  0  0  0  0  0  0
  -11.9438   13.3657  -28.7311 C   0  0  0  0  0  0  0  0  0  0  0  0
  -12.7958   13.0018  -27.7111 C   0  0  0  0  0  0  0  0  0  0  0  0
  -12.1964   12.2990  -26.2206 Cl  0  0  0  0  0  0  0  0  0  0  0  0
  -14.1598   13.1943  -27.8632 C   0  0  0  0  0  0  0  0  0  0  0  0
  -14.5931   13.7453  -29.0410 C   0  0  0  0  0  0  0  0  0  0  0  0
  -16.5473   12.4058  -28.8689 Cl  0  0  0  0  0  0  0  0  0  0  0  0
  1  2  1  0
  2  3  1  0
  2  4  1  0
  4  5  1  0
  5  6  1  0
  6  7  1  0
  7  8  1  0
  8  9  2  0
  9 10  1  0
 10 11  2  0
 11 12  1  0
 12 13  2  0
 13 14  1  0
 14 15  1  0
 15 16  1  0
 16 17  2  0
 17 18  1  0
 18 19  2  0
 19 20  1  0
 19 21  1  0
 21 22  2  0
 22  7  1  0
 13  8  1  0
 22 16  1  0
M  END
$$$$
