
     RDKit          3D

 33 38  0  0  0  0  0  0  0  0999 V2000
  -16.8105   48.3945  -18.0399 C   0  0  0  0  0  0  0  0  0  0  0  0
  -17.6403   48.1131  -19.2527 C   0  0  0  0  0  0  0  0  0  0  0  0
  -17.9903   49.4555  -19.8895 C   0  0  0  0  0  0  0  0  0  0  0  0
  -16.9417   47.3273  -20.2433 N   0  0  0  0  0  0  0  0  0  0  0  0
  -17.6457   47.2161  -21.4786 C   0  0  0  0  0  0  0  0  0  0  0  0
  -16.8519   46.2668  -22.3652 C   0  0  0  0  0  0  0  0  0  0  0  0
  -16.9747   44.9587  -21.8246 N   0  0  0  0  0  0  0  0  0  0  0  0
  -18.2471   44.3429  -22.1296 C   0  0  0  0  0  0  0  0  0  0  0  0
  -18.1852   42.8679  -22.2362 C   0  0  0  0  0  0  0  0  0  0  0  0
  -17.0395   42.1664  -22.5401 C   0  0  0  0  0  0  0  0  0  0  0  0
  -17.3989   40.8594  -22.5407 N   0  0  0  0  0  0  0  0  0  0  0  0
  -18.7063   40.7798  -22.2492 C   0  0  0  0  0  0  0  0  0  0  0  0
  -19.4783   39.5219  -22.1531 C   0  0  0  0  0  0  0  0  0  0  0  0
  -20.6778   39.3877  -22.7936 C   0  0  0  0  0  0  0  0  0  0  0  0
  -21.4091   38.2221  -22.7136 C   0  0  0  0  0  0  0  0  0  0  0  0
  -22.6907   38.0436  -23.3860 C   0  0  0  0  0  0  0  0  0  0  0  0
  -22.7927   36.9782  -24.2886 C   0  0  0  0  0  0  0  0  0  0  0  0
  -23.9648   36.7238  -24.9724 C   0  0  0  0  0  0  0  0  0  0  0  0
  -25.0639   37.5256  -24.7729 C   0  0  0  0  0  0  0  0  0  0  0  0
  -24.9592   38.5859  -23.8735 C   0  0  0  0  0  0  0  0  0  0  0  0
  -25.8715   39.5074  -23.5027 N   0  0  0  0  0  0  0  0  0  0  0  0
  -25.3047   40.3314  -22.6068 C   0  0  0  0  0  0  0  0  0  0  0  0
  -23.9889   39.9215  -22.4002 C   0  0  0  0  0  0  0  0  0  0  0  0
  -23.7844   38.8367  -23.1914 C   0  0  0  0  0  0  0  0  0  0  0  0
  -20.8631   37.1999  -21.9517 C   0  0  0  0  0  0  0  0  0  0  0  0
  -19.6532   37.3205  -21.2992 C   0  0  0  0  0  0  0  0  0  0  0  0
  -18.9263   36.4821  -20.5116 N   0  0  0  0  0  0  0  0  0  0  0  0
  -17.8250   37.1139  -20.1443 N   0  0  0  0  0  0  0  0  0  0  0  0
  -17.7830   38.3448  -20.6544 C   0  0  0  0  0  0  0  0  0  0  0  0
  -18.9469   38.4954  -21.3978 C   0  0  0  0  0  0  0  0  0  0  0  0
  -19.1291   42.0037  -22.0764 O   0  0  0  0  0  0  0  0  0  0  0  0
  -16.7774   44.8733  -20.4050 C   0  0  0  0  0  0  0  0  0  0  0  0
  -16.3614   46.1322  -19.7473 C   0  0  0  0  0  0  0  0  0  0  0  0
  1  2  1  0
  2  3  1  0
  2  4  1  0
  4  5  1  0
  5  6  1  0
  6  7  1  0
  7  8  1  0
  8  9  1  0
  9 10  2  0
 10 11  1  0
 11 12  2  0
 12 13  1  0
 13 14  2  0
 14 15  1  0
 15 16  1  0
 16 17  2  0
 17 18  1  0
 18 19  2  0
 19 20  1  0
 20 21  1  0
 21 22  1  0
 22 23  2  0
 23 24  1  0
 15 25  2  0
 25 26  1  0
 26 27  1  0
 27 28  1  0
 28 29  2  0
 29 30  1  0
 12 31  1  0
  7 32  1  0
 32 33  1  0
 33  4  1  0
 31  9  1  0
 30 13  1  0
 24 16  1  0
 30 26  2  0
 24 20  2  0
M  END
$$$$
