
     RDKit          3D

 33 35  0  0  0  0  0  0  0  0999 V2000
  -12.4314   45.9484  -12.6371 C   0  0  0  0  0  0  0  0  0  0  0  0
  -11.6602   45.6540  -13.9094 C   0  0  0  0  0  0  0  0  0  0  0  0
  -12.6083   45.5663  -14.9568 O   0  0  0  0  0  0  0  0  0  0  0  0
  -13.1078   44.3755  -15.4283 C   0  0  0  0  0  0  0  0  0  0  0  0
  -12.7610   43.3080  -14.8801 O   0  0  0  0  0  0  0  0  0  0  0  0
  -14.0248   44.3709  -16.5476 C   0  0  0  0  0  0  0  0  0  0  0  0
  -13.9872   43.3383  -17.4942 C   0  0  0  0  0  0  0  0  0  0  0  0
  -14.8419   43.2835  -18.5762 C   0  0  0  0  0  0  0  0  0  0  0  0
  -14.7559   42.2012  -19.5094 C   0  0  0  0  0  0  0  0  0  0  0  0
  -14.6986   41.3279  -20.2832 N   0  0  0  0  0  0  0  0  0  0  0  0
  -15.7554   44.3020  -18.6975 C   0  0  0  0  0  0  0  0  0  0  0  0
  -16.6785   44.3114  -19.7998 N   0  0  0  0  0  0  0  0  0  0  0  0
  -17.9792   43.6933  -19.7643 C   0  0  0  0  0  0  0  0  0  0  0  0
  -18.7740   44.3697  -20.8928 C   0  0  0  0  0  0  0  0  0  0  0  0
  -18.1547   43.8661  -22.1688 C   0  0  0  0  0  0  0  0  0  0  0  0
  -18.9842   44.2061  -23.3530 C   0  0  0  0  0  0  0  0  0  0  0  0
  -18.8045   45.3091  -23.9117 O   0  0  0  0  0  0  0  0  0  0  0  0
  -19.9675   43.3324  -23.8724 N   0  0  0  0  0  0  0  0  0  0  0  0
  -21.6269   43.7692  -23.7054 S   0  0  0  0  0  6  0  0  0  0  0  0
  -22.4435   42.6262  -23.1987 O   0  0  0  0  0  0  0  0  0  0  0  0
  -21.7391   44.8819  -22.7070 O   0  0  0  0  0  0  0  0  0  0  0  0
  -22.2008   44.3240  -25.2969 C   0  0  0  0  0  0  0  0  0  0  0  0
  -21.0896   44.5768  -26.2187 C   0  0  0  0  0  0  0  0  0  0  0  0
  -21.2596   44.5216  -27.5819 C   0  0  0  0  0  0  0  0  0  0  0  0
  -20.2271   44.7506  -28.4524 C   0  0  0  0  0  0  0  0  0  0  0  0
  -18.9939   45.0421  -27.9399 C   0  0  0  0  0  0  0  0  0  0  0  0
  -18.7892   45.1053  -26.5823 C   0  0  0  0  0  0  0  0  0  0  0  0
  -19.8429   44.8715  -25.7207 C   0  0  0  0  0  0  0  0  0  0  0  0
  -16.7556   44.3398  -22.2813 C   0  0  0  0  0  0  0  0  0  0  0  0
  -16.2934   44.9934  -21.0139 C   0  0  0  0  0  0  0  0  0  0  0  0
  -15.7943   45.2992  -17.7867 N   0  0  0  0  0  0  0  0  0  0  0  0
  -14.9579   45.3642  -16.7177 C   0  0  0  0  0  0  0  0  0  0  0  0
  -15.0693   46.5004  -15.7650 C   0  0  0  0  0  0  0  0  0  0  0  0
  1  2  1  0
  2  3  1  0
  3  4  1  0
  4  5  2  0
  4  6  1  0
  6  7  2  0
  7  8  1  0
  8  9  1  0
  9 10  3  0
  8 11  2  0
 11 12  1  0
 12 13  1  0
 13 14  1  0
 14 15  1  0
 15 16  1  0
 16 17  2  0
 16 18  1  0
 18 19  1  0
 19 20  2  0
 19 21  2  0
 19 22  1  0
 22 23  1  0
 23 24  2  0
 24 25  1  0
 25 26  2  0
 26 27  1  0
 27 28  2  0
 15 29  1  0
 29 30  1  0
 11 31  1  0
 31 32  2  0
 32 33  1  0
 32  6  1  0
 30 12  1  0
 28 23  1  0
M  END
$$$$
