
     RDKit          3D

 22 25  0  0  0  0  0  0  0  0999 V2000
  -17.7365   46.1420  -21.9875 C   0  0  0  0  0  0  0  0  0  0  0  0
  -16.5651   45.2493  -21.6414 C   0  0  0  0  0  0  0  0  0  0  0  0
  -15.4500   46.1945  -21.2013 C   0  0  0  0  0  0  0  0  0  0  0  0
  -15.5496   46.5409  -19.7747 C   0  0  0  0  0  0  0  0  0  0  0  0
  -15.5663   47.6813  -19.3889 O   0  0  0  0  0  0  0  0  0  0  0  0
  -15.6313   45.4330  -18.7890 C   0  0  0  0  0  0  0  0  0  0  0  0
  -15.7484   44.1551  -19.6329 C   0  0  0  0  0  0  0  0  0  0  0  0
  -15.6422   42.9366  -18.8059 C   0  0  0  0  0  0  0  0  0  0  0  0
  -16.7222   41.9303  -18.9493 C   0  0  0  0  0  0  0  0  0  0  0  0
  -17.1832   41.7221  -20.3472 C   0  0  0  0  0  0  0  0  0  0  0  0
  -18.6023   41.2673  -20.4533 C   0  0  0  0  0  0  0  0  0  0  0  0
  -19.0352   40.2154  -19.5257 C   0  0  0  0  0  0  0  0  0  0  0  0
  -20.1533   39.5120  -20.2797 C   0  0  0  0  0  0  0  0  0  0  0  0
  -20.1432   40.1077  -21.6953 C   0  0  0  0  0  0  0  0  0  0  0  0
  -21.0437   41.1960  -21.7372 O   0  0  0  0  0  0  0  0  0  0  0  0
  -18.7315   40.5693  -21.8093 C   0  0  0  0  0  0  0  0  0  0  0  0
  -17.8365   39.3649  -21.9090 C   0  0  0  0  0  0  0  0  0  0  0  0
  -18.4377   41.5653  -22.8558 C   0  0  0  0  0  0  0  0  0  0  0  0
  -18.1127   42.9468  -22.3394 C   0  0  0  0  0  0  0  0  0  0  0  0
  -17.0227   42.8975  -21.2648 C   0  0  0  0  0  0  0  0  0  0  0  0
  -16.9151   44.2268  -20.5691 C   0  0  0  0  0  0  0  0  0  0  0  0
  -18.1774   44.6904  -19.9275 C   0  0  0  0  0  0  0  0  0  0  0  0
  1  2  1  0
  2  3  1  0
  3  4  1  0
  4  5  2  0
  4  6  1  0
  6  7  1  0
  7  8  1  0
  8  9  1  0
  9 10  1  0
 10 11  1  0
 11 12  1  0
 12 13  1  0
 13 14  1  0
 14 15  1  0
 14 16  1  0
 16 17  1  0
 16 18  1  0
 18 19  1  0
 19 20  1  0
 20 21  1  0
 21 22  1  0
 21  2  1  0
 21  7  1  0
 20 10  1  0
 16 11  1  0
M  END
$$$$
