
     RDKit          3D

 35 37  0  0  0  0  0  0  0  0999 V2000
  -18.9196   37.7077  -19.1161 C   0  0  0  0  0  0  0  0  0  0  0  0
  -18.7596   38.7475  -19.6813 C   0  0  0  0  0  0  0  0  0  0  0  0
  -18.5818   40.0519  -20.3743 C   0  0  0  0  0  0  0  0  0  0  0  0
  -18.6703   39.8613  -21.8365 C   0  0  0  0  0  0  0  0  0  0  0  0
  -19.6191   38.7493  -22.2060 C   0  0  0  0  0  0  0  0  0  0  0  0
  -19.1210   37.4127  -21.9015 C   0  0  0  0  0  0  0  0  0  0  0  0
  -17.7465   37.1590  -21.8830 C   0  0  0  0  0  0  0  0  0  0  0  0
  -17.2612   35.9465  -21.6021 N   0  0  0  0  0  0  0  0  0  0  0  0
  -18.1165   34.9406  -21.3295 C   0  0  0  0  0  0  0  0  0  0  0  0
  -17.7262   33.6859  -21.0354 N   0  0  0  0  0  0  0  0  0  0  0  0
  -18.5863   32.6924  -20.7661 C   0  0  0  0  0  0  0  0  0  0  0  0
  -18.0756   31.4004  -20.4639 N   0  0  0  0  0  0  0  0  0  0  0  0
  -19.9036   32.9245  -20.7819 N   0  0  0  0  0  0  0  0  0  0  0  0
  -20.3731   34.1477  -21.0658 C   0  0  0  0  0  0  0  0  0  0  0  0
  -21.7686   34.3891  -21.0865 N   0  0  0  0  0  0  0  0  0  0  0  0
  -19.4796   35.1752  -21.3441 C   0  0  0  0  0  0  0  0  0  0  0  0
  -19.9395   36.3950  -21.6269 N   0  0  0  0  0  0  0  0  0  0  0  0
  -19.0773   41.0700  -22.5831 C   0  0  0  0  0  0  0  0  0  0  0  0
  -19.6717   42.1322  -21.9597 C   0  0  0  0  0  0  0  0  0  0  0  0
  -20.0382   43.2634  -22.7192 C   0  0  0  0  0  0  0  0  0  0  0  0
  -19.8010   43.2971  -24.0677 C   0  0  0  0  0  0  0  0  0  0  0  0
  -20.1555   44.4848  -24.8541 C   0  0  0  0  0  0  0  0  0  0  0  0
  -19.4680   45.5425  -24.6736 O   0  0  0  0  0  0  0  0  0  0  0  0
  -21.2069   44.4899  -25.7820 N   0  0  0  0  0  0  0  0  0  0  0  0
  -21.0872   45.0216  -27.1693 C   0  0  1  0  0  0  0  0  0  0  0  0
  -22.0535   44.3475  -28.0558 C   0  0  0  0  0  0  0  0  0  0  0  0
  -21.9202   42.9458  -28.4425 C   0  0  0  0  0  0  0  0  0  0  0  0
  -23.0332   42.3492  -29.1535 C   0  0  0  0  0  0  0  0  0  0  0  0
  -23.4200   42.8933  -30.2329 O   0  0  0  0  0  0  0  0  0  0  0  0
  -23.6988   41.2150  -28.7286 O   0  0  0  0  0  0  0  0  0  0  0  0
  -21.2329   46.4786  -27.1144 C   0  0  0  0  0  0  0  0  0  0  0  0
  -21.1217   47.1092  -28.2265 O   0  0  0  0  0  0  0  0  0  0  0  0
  -21.4810   47.2701  -26.0335 O   0  0  0  0  0  0  0  0  0  0  0  0
  -19.1999   42.2200  -24.6979 C   0  0  0  0  0  0  0  0  0  0  0  0
  -18.8473   41.1173  -23.9340 C   0  0  0  0  0  0  0  0  0  0  0  0
  1  2  3  0
  2  3  1  0
  3  4  1  0
  4  5  1  0
  5  6  1  0
  6  7  2  0
  7  8  1  0
  8  9  2  0
  9 10  1  0
 10 11  2  0
 11 12  1  0
 11 13  1  0
 13 14  2  0
 14 15  1  0
 14 16  1  0
 16 17  2  0
  4 18  1  0
 18 19  2  0
 19 20  1  0
 20 21  2  0
 21 22  1  0
 22 23  2  0
 22 24  1  0
 24 25  1  0
 25 26  1  6
 26 27  1  0
 27 28  1  0
 28 29  2  0
 28 30  1  0
 25 31  1  0
 31 32  2  0
 31 33  1  0
 21 34  1  0
 34 35  2  0
 17  6  1  0
 35 18  1  0
 16  9  1  0
M  END
$$$$
