
     RDKit          3D

 33 34  0  0  0  0  0  0  0  0999 V2000
  -14.2425   47.8287  -22.7139 O   0  0  0  0  0  0  0  0  0  0  0  0
  -14.9005   47.5382  -21.4129 S   0  0  0  0  0  6  0  0  0  0  0  0
  -13.8619   47.5143  -20.3035 O   0  0  0  0  0  0  0  0  0  0  0  0
  -16.0317   48.6887  -20.9955 O   0  0  0  0  0  1  0  0  0  0  0  0
  -15.5954   45.9201  -21.4499 C   0  0  0  0  0  0  0  0  0  0  0  0
  -16.1486   45.4179  -22.6093 C   0  0  0  0  0  0  0  0  0  0  0  0
  -16.6916   44.1433  -22.6234 C   0  0  0  0  0  0  0  0  0  0  0  0
  -16.7056   43.3330  -21.5058 C   0  0  0  0  0  0  0  0  0  0  0  0
  -17.2448   42.0624  -21.5131 C   0  0  0  0  0  0  0  0  0  0  0  0
  -17.2604   41.2479  -20.3949 C   0  0  0  0  0  0  0  0  0  0  0  0
  -17.8305   39.9727  -20.5004 N   0  0  0  0  0  0  0  0  0  0  0  0
  -18.7201   39.7493  -21.3462 N   0  0  0  0  0  0  0  0  0  0  0  0
  -19.3542   38.4816  -21.5216 C   0  0  0  0  0  0  0  0  0  0  0  0
  -20.7285   38.3576  -21.4756 C   0  0  0  0  0  0  0  0  0  0  0  0
  -21.3445   37.1342  -21.6446 C   0  0  0  0  0  0  0  0  0  0  0  0
  -23.0856   36.9752  -21.5867 S   0  0  0  0  0  6  0  0  0  0  0  0
  -23.6712   38.3264  -21.2969 O   0  0  0  0  0  0  0  0  0  0  0  0
  -23.6163   36.4958  -22.9053 O   0  0  0  0  0  0  0  0  0  0  0  0
  -23.4835   35.9235  -20.3398 O   0  0  0  0  0  1  0  0  0  0  0  0
  -20.6051   35.9791  -21.8678 C   0  0  0  0  0  0  0  0  0  0  0  0
  -21.2402   34.7634  -22.0347 C   0  0  0  0  0  0  0  0  0  0  0  0
  -20.4761   33.6362  -22.2546 C   0  0  0  0  0  0  0  0  0  0  0  0
  -19.1092   33.7866  -22.2959 C   0  0  0  0  0  0  0  0  0  0  0  0
  -18.4936   34.9693  -22.1335 N   0  0  0  0  0  0  0  0  0  0  0  0
  -19.2333   36.0902  -21.9158 C   0  0  0  0  0  0  0  0  0  0  0  0
  -18.6323   37.3264  -21.7439 C   0  0  0  0  0  0  0  0  0  0  0  0
  -17.2508   37.4327  -21.7931 O   0  0  0  0  0  0  0  0  0  0  0  0
  -16.7055   41.7573  -19.2400 C   0  0  0  0  0  0  0  0  0  0  0  0
  -16.1670   43.0274  -19.2349 C   0  0  0  0  0  0  0  0  0  0  0  0
  -16.1514   43.8382  -20.3476 C   0  0  0  0  0  0  0  0  0  0  0  0
  -15.6084   45.1132  -20.3340 C   0  0  0  0  0  0  0  0  0  0  0  0
  -18.2919   40.2780  -21.3982 Na  0  0  0  0  0 15  0  0  0  0  0  0
  -18.2919   40.2780  -21.3982 Na  0  0  0  0  0 15  0  0  0  0  0  0
  1  2  2  0
  2  3  2  0
  2  4  1  0
  2  5  1  0
  5  6  2  0
  6  7  1  0
  7  8  2  0
  8  9  1  0
  9 10  2  0
 10 11  1  0
 11 12  2  3
 12 13  1  0
 13 14  2  0
 14 15  1  0
 15 16  1  0
 16 17  2  0
 16 18  2  0
 16 19  1  0
 15 20  2  0
 20 21  1  0
 21 22  2  0
 22 23  1  0
 23 24  2  0
 24 25  1  0
 25 26  2  0
 26 27  1  0
 10 28  1  0
 28 29  2  0
 29 30  1  0
 30 31  2  0
 31  5  1  0
 30  8  1  0
 26 13  1  0
 25 20  1  0
M  CHG  4   4  -1  19  -1  32   1  33   1
M  END
$$$$
