
     RDKit          3D

 26 23  0  0  0  0  0  0  0  0999 V2000
  -20.6264   41.4527  -18.1809 C   0  0  0  0  0  0  0  0  0  0  0  0
  -20.2864   42.4599  -19.2585 C   0  0  0  0  0  0  0  0  0  0  0  0
  -20.3925   41.8406  -20.6731 C   0  0  0  0  0  0  0  0  0  0  0  0
  -21.8096   41.3652  -20.7704 C   0  0  0  0  0  0  0  0  0  0  0  0
  -22.7753   42.5524  -20.5788 C   0  0  0  0  0  0  0  0  0  0  0  0
  -19.2905   40.9146  -20.8226 C   0  0  2  0  0  0  0  0  0  0  0  0
  -17.9844   41.5537  -20.7427 N   0  0  0  0  0  0  0  0  0  0  0  0
  -17.6326   42.8885  -20.8876 C   0  0  0  0  0  0  0  0  0  0  0  0
  -16.1871   43.3274  -20.7343 C   0  0  0  0  0  0  0  0  0  0  0  0
  -18.4515   43.7699  -21.1422 O   0  0  0  0  0  0  0  0  0  0  0  0
  -19.1619   39.8158  -21.7668 C   0  0  2  0  0  0  0  0  0  0  0  0
  -19.1684   40.0500  -23.2189 C   0  0  2  0  0  0  0  0  0  0  0  0
  -18.6206   41.2318  -23.6599 O   0  0  0  0  0  0  0  0  0  0  0  0
  -20.4853   39.7029  -23.7947 C   0  0  1  0  0  0  0  0  0  0  0  0
  -20.2805   39.1527  -25.1826 C   0  0  0  0  0  0  0  0  0  0  0  0
  -20.6743   37.9871  -25.4084 O   0  0  0  0  0  0  0  0  0  0  0  0
  -19.6744   39.9384  -26.1474 O   0  0  0  0  0  0  0  0  0  0  0  0
  -20.9638   38.6208  -22.8619 C   0  0  0  0  0  0  0  0  0  0  0  0
  -20.0487   38.6457  -21.6642 C   0  0  1  0  0  0  0  0  0  0  0  0
  -19.2406   37.4150  -21.7702 N   0  0  0  0  0  0  0  0  0  0  0  0
  -18.2129   37.1379  -20.8295 C   0  0  0  0  0  0  0  0  0  0  0  0
  -18.3115   37.5432  -19.6231 N   0  0  0  0  0  0  0  0  0  0  0  0
  -17.0516   36.4053  -21.2026 N   0  0  0  0  0  0  0  0  0  0  0  0
  -19.3722   40.7095  -21.5963 O   0  0  0  0  0  0  0  0  0  0  0  0
  -19.3776   40.6973  -21.5917 O   0  0  0  0  0  0  0  0  0  0  0  0
  -19.3814   40.6954  -21.5867 O   0  0  0  0  0  0  0  0  0  0  0  0
  1  2  1  0
  2  3  1  0
  3  4  1  0
  4  5  1  0
  3  6  1  0
  6  7  1  6
  7  8  1  0
  8  9  1  0
  8 10  2  0
 11  6  1  1
 11 12  1  0
 12 13  1  1
 12 14  1  0
 14 15  1  6
 15 16  2  0
 15 17  1  0
 14 18  1  0
 18 19  1  0
 19 20  1  6
 20 21  1  0
 21 22  2  0
 21 23  1  0
 19 11  1  0
M  END
$$$$
