
     RDKit          3D

 22 24  0  0  0  0  0  0  0  0999 V2000
  -25.2808   18.1056  -24.4728 C   0  0  0  0  0  0  0  0  0  0  0  0
  -25.8538   16.8462  -24.7646 O   0  0  0  0  0  0  0  0  0  0  0  0
  -26.6168   16.1446  -23.8435 C   0  0  0  0  0  0  0  0  0  0  0  0
  -27.3724   16.8796  -22.9567 C   0  0  0  0  0  0  0  0  0  0  0  0
  -28.1468   16.2208  -22.0226 C   0  0  0  0  0  0  0  0  0  0  0  0
  -28.9011   16.8777  -21.1360 N   0  0  0  0  0  0  0  0  0  0  0  0
  -29.6479   16.2166  -20.2348 C   0  0  0  0  0  0  0  0  0  0  0  0
  -29.6673   14.8718  -20.1877 N   0  0  0  0  0  0  0  0  0  0  0  0
  -28.9144   14.1926  -21.0723 C   0  0  0  0  0  0  0  0  0  0  0  0
  -28.9336   12.7919  -21.0245 N   0  0  0  0  0  0  0  0  0  0  0  0
  -29.7287   12.0654  -20.0762 C   0  0  0  0  0  0  0  0  0  0  0  0
  -29.2444   10.8835  -19.5581 C   0  0  0  0  0  0  0  0  0  0  0  0
  -30.0483   10.2165  -18.6448 C   0  0  0  0  0  0  0  0  0  0  0  0
  -31.2749   10.7001  -18.2642 C   0  0  0  0  0  0  0  0  0  0  0  0
  -31.7646   11.8826  -18.7796 C   0  0  0  0  0  0  0  0  0  0  0  0
  -33.4680   12.5583  -18.2537 Br  0  0  0  0  0  0  0  0  0  0  0  0
  -30.9560   12.5507  -19.6963 C   0  0  0  0  0  0  0  0  0  0  0  0
  -28.1494   14.8407  -21.9950 C   0  0  0  0  0  0  0  0  0  0  0  0
  -27.3800   14.1090  -22.8983 C   0  0  0  0  0  0  0  0  0  0  0  0
  -26.6072   14.7662  -23.8303 C   0  0  0  0  0  0  0  0  0  0  0  0
  -25.8364   14.0365  -24.7353 O   0  0  0  0  0  0  0  0  0  0  0  0
  -25.4623   12.7009  -24.4516 C   0  0  0  0  0  0  0  0  0  0  0  0
  1  2  1  0
  2  3  1  0
  3  4  2  0
  4  5  1  0
  5  6  2  0
  6  7  1  0
  7  8  2  0
  8  9  1  0
  9 10  1  0
 10 11  1  0
 11 12  2  0
 12 13  1  0
 13 14  2  0
 14 15  1  0
 15 16  1  0
 15 17  2  0
  9 18  2  0
 18 19  1  0
 19 20  2  0
 20 21  1  0
 21 22  1  0
 20  3  1  0
 18  5  1  0
 17 11  1  0
M  END
$$$$
