
     RDKit          3D

 17 19  0  0  0  0  0  0  0  0999 V2000
  -10.1361   12.9824  -24.5954 N   0  0  0  0  0  0  0  0  0  0  0  0
  -11.1811   13.0831  -25.5775 C   0  0  0  0  0  0  0  0  0  0  0  0
  -10.8939   13.5087  -26.8540 C   0  0  0  0  0  0  0  0  0  0  0  0
  -11.9216   13.5915  -27.7645 C   0  0  0  0  0  0  0  0  0  0  0  0
  -13.2376   13.2550  -27.4210 C   0  0  0  0  0  0  0  0  0  0  0  0
  -14.2778   13.3665  -28.4371 C   0  0  0  0  0  0  0  0  0  0  0  0
  -15.6106   13.3140  -28.1181 C   0  0  0  0  0  0  0  0  0  0  0  0
  -16.6242   13.4197  -29.0839 C   0  0  0  0  0  0  0  0  0  0  0  0
  -16.1997   13.5806  -30.3828 C   0  0  0  0  0  0  0  0  0  0  0  0
  -17.1524   13.6913  -31.3844 C   0  0  0  0  0  0  0  0  0  0  0  0
  -16.7850   13.8545  -32.7073 C   0  0  0  0  0  0  0  0  0  0  0  0
  -15.4700   13.9090  -33.0456 C   0  0  0  0  0  0  0  0  0  0  0  0
  -14.5186   13.7991  -32.0501 C   0  0  0  0  0  0  0  0  0  0  0  0
  -14.8643   13.6345  -30.7132 C   0  0  0  0  0  0  0  0  0  0  0  0
  -13.9443   13.5276  -29.7459 N   0  0  0  0  0  0  0  0  0  0  0  0
  -13.4596   12.8413  -26.1451 C   0  0  0  0  0  0  0  0  0  0  0  0
  -12.4401   12.7466  -25.1991 C   0  0  0  0  0  0  0  0  0  0  0  0
  1  2  1  0
  2  3  2  0
  3  4  1  0
  4  5  2  0
  5  6  1  0
  6  7  2  0
  7  8  1  0
  8  9  2  0
  9 10  1  0
 10 11  2  0
 11 12  1  0
 12 13  2  0
 13 14  1  0
 14 15  2  0
  5 16  1  0
 16 17  2  0
 17  2  1  0
 15  6  1  0
 14  9  1  0
M  END
$$$$
