
     RDKit          3D

 32 37  0  0  0  0  0  0  0  0999 V2000
  -17.3596   37.1028  -20.9810 O   0  0  0  0  0  0  0  0  0  0  0  0
  -18.1568   37.0499  -21.9774 C   0  0  0  0  0  0  0  0  0  0  0  0
  -18.5766   35.7359  -22.5037 C   0  0  0  0  0  0  0  0  0  0  0  0
  -17.6369   34.5796  -22.4711 C   0  0  0  0  0  0  0  0  0  0  0  0
  -18.6756   34.6674  -21.4326 C   0  0  0  0  0  0  0  0  0  0  0  0
  -18.6500   38.2309  -22.5923 N   0  0  0  0  0  0  0  0  0  0  0  0
  -19.4175   38.2979  -23.8059 C   0  0  0  0  0  0  0  0  0  0  0  0
  -20.1383   39.6448  -23.6579 C   0  0  0  0  0  0  0  0  0  0  0  0
  -19.0036   40.4837  -23.0967 C   0  0  1  0  0  0  0  0  0  0  0  0
  -19.5120   41.7719  -22.4964 C   0  0  0  0  0  0  0  0  0  0  0  0
  -20.3080   41.4308  -21.2921 C   0  0  0  0  0  0  0  0  0  0  0  0
  -21.5449   40.9282  -21.2173 N   0  0  0  0  0  0  0  0  0  0  0  0
  -21.8945   40.7675  -19.9409 N   0  0  0  0  0  0  0  0  0  0  0  0
  -20.8616   41.1748  -19.1671 C   0  0  0  0  0  0  0  0  0  0  0  0
  -20.8687   41.1535  -17.9270 O   0  0  0  0  0  0  0  0  0  0  0  0
  -19.8924   41.5805  -20.0243 N   0  0  0  0  0  0  0  0  0  0  0  0
  -18.6361   42.0847  -19.5974 C   0  0  0  0  0  0  0  0  0  0  0  0
  -18.4174   43.4460  -19.7246 C   0  0  0  0  0  0  0  0  0  0  0  0
  -17.2148   43.9944  -19.3272 C   0  0  0  0  0  0  0  0  0  0  0  0
  -16.1932   43.2340  -18.7955 C   0  0  0  0  0  0  0  0  0  0  0  0
  -14.9507   43.8665  -18.3960 C   0  0  0  0  0  0  0  0  0  0  0  0
  -14.4125   43.7095  -17.1439 C   0  0  0  0  0  0  0  0  0  0  0  0
  -13.2298   44.3078  -16.7558 C   0  0  0  0  0  0  0  0  0  0  0  0
  -12.5755   45.0949  -17.6835 C   0  0  0  0  0  0  0  0  0  0  0  0
  -11.4399   45.7813  -17.5909 O   0  0  0  0  0  0  0  0  0  0  0  0
  -11.1866   46.3899  -18.7110 C   0  0  0  0  0  0  0  0  0  0  0  0
  -12.1949   46.1048  -19.6055 C   0  0  0  0  0  0  0  0  0  0  0  0
  -13.0818   45.2782  -18.9505 C   0  0  0  0  0  0  0  0  0  0  0  0
  -14.2821   44.6547  -19.3032 C   0  0  0  0  0  0  0  0  0  0  0  0
  -16.4156   41.8775  -18.6704 C   0  0  0  0  0  0  0  0  0  0  0  0
  -17.6331   41.3153  -19.0717 C   0  0  0  0  0  0  0  0  0  0  0  0
  -18.4320   39.5615  -22.0503 C   0  0  0  0  0  0  0  0  0  0  0  0
  1  2  2  0
  2  3  1  0
  3  4  1  0
  4  5  1  0
  2  6  1  0
  6  7  1  0
  7  8  1  0
  8  9  1  0
  9 10  1  1
 10 11  1  0
 11 12  2  0
 12 13  1  0
 13 14  1  0
 14 15  2  0
 14 16  1  0
 16 17  1  0
 17 18  2  0
 18 19  1  0
 19 20  2  0
 20 21  1  0
 21 22  2  0
 22 23  1  0
 23 24  2  0
 24 25  1  0
 25 26  1  0
 26 27  2  0
 27 28  1  0
 28 29  2  0
 20 30  1  0
 30 31  2  0
  9 32  1  0
  5  3  1  0
 32  6  1  0
 16 11  1  0
 31 17  1  0
 29 21  1  0
 28 24  1  0
M  END
$$$$
