
     RDKit          3D

 35 38  0  0  0  0  0  0  0  0999 V2000
  -25.8475   21.5175  -38.4689 N   0  0  0  0  0  0  0  0  0  0  0  0
  -25.0530   20.9878  -37.8947 C   0  0  0  0  0  0  0  0  0  0  0  0
  -24.0237   20.2884  -37.1327 C   0  0  0  0  0  0  0  0  0  0  0  0
  -22.7340   20.7643  -37.0429 C   0  0  0  0  0  0  0  0  0  0  0  0
  -21.7589   20.0997  -36.3765 C   0  0  0  0  0  0  0  0  0  0  0  0
  -21.9917   18.8797  -35.7312 C   0  0  0  0  0  0  0  0  0  0  0  0
  -20.8917   18.1870  -35.0835 C   0  0  0  0  0  0  0  0  0  0  0  0
  -20.1796   17.1807  -35.8012 N   0  0  0  0  0  0  0  0  0  0  0  0
  -18.9100   17.3933  -36.3904 C   0  0  0  0  0  0  0  0  0  0  0  0
  -18.0367   16.5197  -36.1947 O   0  0  0  0  0  0  0  0  0  0  0  0
  -18.5735   18.5830  -37.2341 C   0  0  0  0  0  0  0  0  0  0  0  0
  -17.8298   18.1046  -38.4665 C   0  0  0  0  0  0  0  0  0  0  0  0
  -16.4209   18.5737  -38.5341 C   0  0  0  0  0  0  0  0  0  0  0  0
  -15.6028   17.7635  -39.5381 C   0  0  0  0  0  0  0  0  0  0  0  0
  -14.2626   18.4713  -39.6190 C   0  0  0  0  0  0  0  0  0  0  0  0
  -13.2790   17.7467  -40.3630 N   0  0  0  0  0  0  0  0  0  0  0  0
  -13.6889   17.6148  -41.7240 C   0  0  0  0  0  0  0  0  0  0  0  0
  -13.4699   18.9285  -42.4361 C   0  0  0  0  0  0  0  0  0  0  0  0
  -12.0761   19.2571  -42.3491 N   0  0  0  0  0  0  0  0  0  0  0  0
  -11.5800   20.2325  -43.2395 C   0  0  0  0  0  0  0  0  0  0  0  0
  -10.1790   20.4596  -43.2800 C   0  0  0  0  0  0  0  0  0  0  0  0
   -9.6739   21.4416  -44.0854 C   0  0  0  0  0  0  0  0  0  0  0  0
  -10.4999   22.2184  -44.8612 C   0  0  0  0  0  0  0  0  0  0  0  0
  -11.8490   21.9915  -44.8177 C   0  0  0  0  0  0  0  0  0  0  0  0
  -12.4212   20.9850  -43.9987 C   0  0  0  0  0  0  0  0  0  0  0  0
  -13.8435   20.8070  -44.0323 C   0  0  0  0  0  0  0  0  0  0  0  0
  -14.3423   19.8126  -44.9248 C   0  0  0  0  0  0  0  0  0  0  0  0
  -15.6834   19.5660  -44.9682 C   0  0  0  0  0  0  0  0  0  0  0  0
  -16.5839   20.1998  -44.2233 C   0  0  0  0  0  0  0  0  0  0  0  0
  -16.1430   21.1926  -43.3263 C   0  0  0  0  0  0  0  0  0  0  0  0
  -14.7748   21.4391  -43.2832 C   0  0  0  0  0  0  0  0  0  0  0  0
  -11.2344   18.6394  -41.3866 C   0  0  0  0  0  0  0  0  0  0  0  0
  -11.9745   18.2761  -40.1443 C   0  0  0  0  0  0  0  0  0  0  0  0
  -23.2743   18.4042  -35.8162 C   0  0  0  0  0  0  0  0  0  0  0  0
  -24.2769   19.0905  -36.5030 C   0  0  0  0  0  0  0  0  0  0  0  0
  1  2  3  0
  2  3  1  0
  3  4  2  0
  4  5  1  0
  5  6  2  0
  6  7  1  0
  7  8  1  0
  8  9  1  0
  9 10  2  0
  9 11  1  0
 11 12  1  0
 12 13  1  0
 13 14  1  0
 14 15  1  0
 15 16  1  0
 16 17  1  0
 17 18  1  0
 18 19  1  0
 19 20  1  0
 20 21  2  0
 21 22  1  0
 22 23  2  0
 23 24  1  0
 24 25  2  0
 25 26  1  0
 26 27  2  0
 27 28  1  0
 28 29  2  0
 29 30  1  0
 30 31  2  0
 19 32  1  0
 32 33  1  0
  6 34  1  0
 34 35  2  0
 35  3  1  0
 33 16  1  0
 25 20  1  0
 31 26  1  0
M  END
$$$$
