
     RDKit          3D

 19 20  0  0  0  0  0  0  0  0999 V2000
   -0.0566   11.9453  -38.1147 C   0  0  0  0  0  0  0  0  0  0  0  0
    1.0051   11.2476  -38.9047 C   0  0  0  0  0  0  0  0  0  0  0  0
    1.0640   11.7746  -40.2880 C   0  0  0  0  0  0  0  0  0  0  0  0
    2.1540   11.7089  -40.9104 O   0  0  0  0  0  0  0  0  0  0  0  0
   -0.0281   12.3373  -40.9279 O   0  0  0  0  0  0  0  0  0  0  0  0
    0.8821    9.7856  -38.9154 C   0  0  0  0  0  0  0  0  0  0  0  0
    1.9395    8.9517  -38.6118 C   0  0  0  0  0  0  0  0  0  0  0  0
    1.8491    7.5841  -38.6148 C   0  0  0  0  0  0  0  0  0  0  0  0
    0.6517    6.9794  -38.9340 C   0  0  0  0  0  0  0  0  0  0  0  0
   -0.4393    7.7720  -39.2463 C   0  0  0  0  0  0  0  0  0  0  0  0
   -1.6872    7.0971  -39.5691 C   0  0  0  0  0  0  0  0  0  0  0  0
   -1.6301    5.9893  -40.2106 O   0  0  0  0  0  0  0  0  0  0  0  0
   -3.0046    7.5721  -39.2256 C   0  0  0  0  0  0  0  0  0  0  0  0
   -3.4781    8.7394  -39.7704 C   0  0  0  0  0  0  0  0  0  0  0  0
   -4.7395    9.2272  -39.4520 C   0  0  0  0  0  0  0  0  0  0  0  0
   -5.5278    8.5256  -38.5735 C   0  0  0  0  0  0  0  0  0  0  0  0
   -5.0782    7.3473  -38.0088 C   0  0  0  0  0  0  0  0  0  0  0  0
   -3.8102    6.8847  -38.3474 C   0  0  0  0  0  0  0  0  0  0  0  0
   -0.3148    9.1644  -39.2340 C   0  0  0  0  0  0  0  0  0  0  0  0
  1  2  1  0
  2  3  1  0
  3  4  2  0
  3  5  1  0
  2  6  1  0
  6  7  2  0
  7  8  1  0
  8  9  2  0
  9 10  1  0
 10 11  1  0
 11 12  2  0
 11 13  1  0
 13 14  2  0
 14 15  1  0
 15 16  2  0
 16 17  1  0
 17 18  2  0
 10 19  2  0
 19  6  1  0
 18 13  1  0
M  END
$$$$
