
     RDKit          3D

 33 35  0  0  0  0  0  0  0  0999 V2000
  -24.8650   38.5067  -23.9756 C   0  0  0  0  0  0  0  0  0  0  0  0
  -24.5020   37.3209  -23.2287 N   0  0  0  0  0  0  0  0  0  0  0  0
  -23.0341   37.2231  -23.3254 C   0  0  0  0  0  0  0  0  0  0  0  0
  -22.6116   36.0246  -22.5562 C   0  0  0  0  0  0  0  0  0  0  0  0
  -21.1788   35.8389  -22.6237 N   0  0  0  0  0  0  0  0  0  0  0  0
  -20.9019   35.4474  -24.0141 C   0  0  0  0  0  0  0  0  0  0  0  0
  -20.5590   37.1583  -22.3940 C   0  0  0  0  0  0  0  0  0  0  0  0
  -19.1009   36.9370  -22.2443 C   0  0  0  0  0  0  0  0  0  0  0  0
  -18.4258   35.7232  -22.2879 C   0  0  0  0  0  0  0  0  0  0  0  0
  -17.1215   35.9548  -22.0955 N   0  0  0  0  0  0  0  0  0  0  0  0
  -16.9678   37.2472  -21.9368 N   0  0  0  0  0  0  0  0  0  0  0  0
  -18.1589   37.8935  -22.0208 C   0  0  0  0  0  0  0  0  0  0  0  0
  -18.3630   39.3438  -21.8699 C   0  0  0  0  0  0  0  0  0  0  0  0
  -17.7838   39.9807  -20.7840 C   0  0  0  0  0  0  0  0  0  0  0  0
  -17.9148   41.3377  -20.5732 C   0  0  0  0  0  0  0  0  0  0  0  0
  -18.6353   42.1294  -21.4420 C   0  0  0  0  0  0  0  0  0  0  0  0
  -18.8220   43.4835  -21.3163 O   0  0  0  0  0  0  0  0  0  0  0  0
  -18.3207   44.2792  -20.2666 C   0  0  1  0  0  0  0  0  0  0  0  0
  -17.6816   45.5839  -20.7735 C   0  0  0  0  0  0  0  0  0  0  0  0
  -19.1346   45.9825  -21.0719 C   0  0  2  0  0  0  0  0  0  0  0  0
  -19.3810   47.3231  -21.0499 O   0  0  0  0  0  0  0  0  0  0  0  0
  -20.0363   47.6746  -22.2084 C   0  0  0  0  0  0  0  0  0  0  0  0
  -20.3993   49.0872  -22.4070 C   0  0  0  0  0  0  0  0  0  0  0  0
  -21.3443   49.6276  -21.3853 C   0  0  0  0  0  0  0  0  0  0  0  0
  -21.6810   51.1077  -21.7265 C   0  0  0  0  0  0  0  0  0  0  0  0
  -20.7318   51.9702  -20.9600 C   0  0  0  0  0  0  0  0  0  0  0  0
  -19.4602   51.4344  -20.9394 O   0  0  0  0  0  0  0  0  0  0  0  0
  -19.4409   50.3581  -20.0332 C   0  0  0  0  0  0  0  0  0  0  0  0
  -20.7214   49.5952  -20.0110 C   0  0  0  0  0  0  0  0  0  0  0  0
  -19.4669   45.1962  -19.8198 C   0  0  0  0  0  0  0  0  0  0  0  0
  -19.2126   41.4998  -22.5233 C   0  0  0  0  0  0  0  0  0  0  0  0
  -19.0829   40.1199  -22.7438 C   0  0  0  0  0  0  0  0  0  0  0  0
  -20.5154   42.1267  -21.9973 Cl  0  0  0  0  0  0  0  0  0  0  0  0
  1  2  1  0
  2  3  1  0
  3  4  1  0
  4  5  1  0
  5  6  1  0
  5  7  1  0
  7  8  1  0
  8  9  2  0
  9 10  1  0
 10 11  1  0
 11 12  2  0
 12 13  1  0
 13 14  2  0
 14 15  1  0
 15 16  2  0
 16 17  1  0
 18 17  1  6
 18 19  1  0
 19 20  1  0
 20 21  1  1
 21 22  1  0
 22 23  1  0
 23 24  1  0
 24 25  1  0
 25 26  1  0
 26 27  1  0
 27 28  1  0
 28 29  1  0
 20 30  1  0
 16 31  1  0
 31 32  2  0
 12  8  1  0
 32 13  1  0
 30 18  1  0
 29 24  1  0
M  END
$$$$
