
     RDKit          3D

 17 18  0  0  0  0  0  0  0  0999 V2000
  -27.7620   10.9188  -20.8825 N   0  0  0  0  0  0  0  0  0  0  0  0
  -28.6701   11.6362  -20.9161 C   0  0  0  0  0  0  0  0  0  0  0  0
  -29.8350   12.5368  -20.9384 C   0  0  0  0  0  0  0  0  0  0  0  0
  -29.4260   13.9510  -21.1713 C   0  0  0  0  0  0  0  0  0  0  0  0
  -28.2892   14.4112  -20.5238 C   0  0  0  0  0  0  0  0  0  0  0  0
  -27.9113   15.7159  -20.7383 C   0  0  0  0  0  0  0  0  0  0  0  0
  -28.6508   16.5402  -21.5787 C   0  0  0  0  0  0  0  0  0  0  0  0
  -28.2022   18.1970  -21.8736 Cl  0  0  0  0  0  0  0  0  0  0  0  0
  -29.7757   16.0517  -22.2071 C   0  0  0  0  0  0  0  0  0  0  0  0
  -30.1769   14.7469  -22.0093 C   0  0  0  0  0  0  0  0  0  0  0  0
  -30.6475   12.4141  -19.7000 C   0  0  0  0  0  0  0  0  0  0  0  0
  -30.1034   11.7088  -18.6507 C   0  0  0  0  0  0  0  0  0  0  0  0
  -30.8009   11.5549  -17.4719 C   0  0  0  0  0  0  0  0  0  0  0  0
  -32.0480   12.1099  -17.3443 C   0  0  0  0  0  0  0  0  0  0  0  0
  -32.5526   12.8105  -18.4285 C   0  0  0  0  0  0  0  0  0  0  0  0
  -34.1536   13.5166  -18.2495 Cl  0  0  0  0  0  0  0  0  0  0  0  0
  -31.8672   12.9544  -19.5694 N   0  0  0  0  0  0  0  0  0  0  0  0
  1  2  3  0
  2  3  1  0
  3  4  1  0
  4  5  2  0
  5  6  1  0
  6  7  2  0
  7  8  1  0
  7  9  1  0
  9 10  2  0
  3 11  1  0
 11 12  2  0
 12 13  1  0
 13 14  2  0
 14 15  1  0
 15 16  1  0
 15 17  2  0
 10  4  1  0
 17 11  1  0
M  END
$$$$
