
     RDKit          3D

 34 38  0  0  0  0  0  0  0  0999 V2000
  -31.2001   24.5812  -37.1053 C   0  0  0  0  0  0  0  0  0  0  0  0
  -30.4041   25.4469  -36.1112 C   0  0  0  0  0  0  0  0  0  0  0  0
  -31.3057   25.6151  -34.9088 C   0  0  0  0  0  0  0  0  0  0  0  0
  -30.1266   26.7256  -36.8229 C   0  0  0  0  0  0  0  0  0  0  0  0
  -28.9638   27.5213  -36.3615 C   0  0  0  0  0  0  0  0  0  0  0  0
  -27.7732   26.6872  -35.9215 C   0  0  2  0  0  0  0  0  0  0  0  0
  -27.8470   26.6304  -34.4387 C   0  0  0  0  0  0  0  0  0  0  0  0
  -28.7204   27.2901  -33.7777 O   0  0  0  0  0  0  0  0  0  0  0  0
  -26.9955   25.8734  -33.6448 O   0  0  0  0  0  0  0  0  0  0  0  0
  -26.4540   27.2463  -36.3141 C   0  0  0  0  0  0  0  0  0  0  0  0
  -25.7851   26.5972  -37.4948 C   0  0  0  0  0  0  0  0  0  0  0  0
  -25.7632   25.1016  -37.4732 C   0  0  2  0  0  0  0  0  0  0  0  0
  -26.2339   24.6148  -38.8237 C   0  0  0  0  0  0  0  0  0  0  0  0
  -26.7395   24.5816  -36.4584 C   0  0  0  0  0  0  0  0  0  0  0  0
  -26.5136   23.5859  -35.6237 C   0  0  0  0  0  0  0  0  0  0  0  0
  -25.2145   22.8268  -35.5834 C   0  0  0  0  0  0  0  0  0  0  0  0
  -24.6455   23.0235  -36.9968 C   0  0  2  0  0  0  0  0  0  0  0  0
  -23.5441   22.1189  -37.3516 C   0  0  1  0  0  0  0  0  0  0  0  0
  -23.6168   20.9441  -36.3703 C   0  0  0  0  0  0  0  0  0  0  0  0
  -23.8081   21.4853  -38.7090 C   0  0  0  0  0  0  0  0  0  0  0  0
  -22.7932   20.4931  -39.1319 C   0  0  0  0  0  0  0  0  0  0  0  0
  -21.3840   20.7845  -38.8216 C   0  0  2  0  0  0  0  0  0  0  0  0
  -20.6960   19.5927  -38.4883 O   0  0  0  0  0  0  0  0  0  0  0  0
  -21.0777   21.7984  -37.7703 C   0  0  1  0  0  0  0  0  0  0  0  0
  -20.5764   21.0692  -36.4946 C   0  0  0  0  0  0  0  0  0  0  0  0
  -19.8490   22.5671  -38.2278 C   0  0  0  0  0  0  0  0  0  0  0  0
  -20.0812   23.5528  -39.1440 O   0  0  0  0  0  0  0  0  0  0  0  0
  -22.1776   22.7473  -37.4041 C   0  0  0  0  0  0  0  0  0  0  0  0
  -22.2243   23.9393  -38.2788 C   0  0  0  0  0  0  0  0  0  0  0  0
  -23.3861   24.8521  -38.1364 C   0  0  0  0  0  0  0  0  0  0  0  0
  -24.3961   24.5000  -37.1035 C   0  0  1  0  0  0  0  0  0  0  0  0
  -23.9944   25.1651  -35.8186 C   0  0  0  0  0  0  0  0  0  0  0  0
  -28.0269   25.2957  -36.4589 C   0  0  1  0  0  0  0  0  0  0  0  0
  -29.1532   24.6635  -35.7380 C   0  0  0  0  0  0  0  0  0  0  0  0
  1  2  1  0
  2  3  1  0
  2  4  1  0
  4  5  1  0
  5  6  1  0
  6  7  1  1
  7  8  2  0
  7  9  1  0
  6 10  1  0
 10 11  1  0
 11 12  1  0
 12 13  1  6
 12 14  1  0
 14 15  2  0
 15 16  1  0
 17 16  1  1
 17 18  1  0
 18 19  1  1
 18 20  1  0
 20 21  1  0
 21 22  1  0
 22 23  1  1
 22 24  1  0
 24 25  1  1
 24 26  1  0
 26 27  1  0
 24 28  1  0
 28 29  1  0
 29 30  1  0
 30 31  1  0
 31 32  1  1
 14 33  1  0
 33 34  1  1
 34  2  1  0
 33  6  1  0
 31 12  1  0
 31 17  1  0
 28 18  1  0
M  END
$$$$
