
     RDKit          3D

 21 24  0  0  0  0  0  0  0  0999 V2000
  -23.8809   16.4078  -36.3332 C   0  0  0  0  0  0  0  0  0  0  0  0
  -23.0449   17.6196  -36.4620 C   0  0  0  0  0  0  0  0  0  0  0  0
  -23.6138   18.7580  -36.9933 C   0  0  0  0  0  0  0  0  0  0  0  0
  -22.8159   19.8572  -37.0982 C   0  0  0  0  0  0  0  0  0  0  0  0
  -21.4820   19.8498  -36.6919 C   0  0  0  0  0  0  0  0  0  0  0  0
  -20.9430   18.7088  -36.1689 C   0  0  0  0  0  0  0  0  0  0  0  0
  -19.6160   18.6391  -35.7448 C   0  0  0  0  0  0  0  0  0  0  0  0
  -19.1213   17.4392  -35.2163 C   0  0  0  0  0  0  0  0  0  0  0  0
  -19.9466   16.3404  -35.1198 C   0  0  0  0  0  0  0  0  0  0  0  0
  -21.2574   16.3692  -35.5261 C   0  0  0  0  0  0  0  0  0  0  0  0
  -21.7284   17.5499  -36.0413 C   0  0  0  0  0  0  0  0  0  0  0  0
  -17.7336   17.3849  -34.7789 C   0  0  0  0  0  0  0  0  0  0  0  0
  -16.9115   18.4151  -34.8550 C   0  0  0  0  0  0  0  0  0  0  0  0
  -17.3623   19.6783  -35.3902 C   0  0  0  0  0  0  0  0  0  0  0  0
  -16.6479   20.7008  -35.4965 O   0  0  0  0  0  0  0  0  0  0  0  0
  -18.7677   19.8011  -35.8546 C   0  0  0  0  0  0  0  0  0  0  0  0
  -19.1500   20.8884  -36.3134 O   0  0  0  0  0  0  0  0  0  0  0  0
  -15.5672   18.0293  -34.3260 C   0  0  1  0  0  0  0  0  0  0  0  0
  -15.0206   19.0948  -33.3996 C   0  0  0  0  0  0  0  0  0  0  0  0
  -15.9484   16.8034  -33.4965 C   0  0  0  0  0  0  0  0  0  0  0  0
  -17.0433   16.2951  -34.2259 O   0  0  0  0  0  0  0  0  0  0  0  0
  1  2  1  0
  2  3  2  0
  3  4  1  0
  4  5  2  0
  5  6  1  0
  6  7  2  0
  7  8  1  0
  8  9  2  0
  9 10  1  0
 10 11  2  0
  8 12  1  0
 12 13  2  0
 13 14  1  0
 14 15  2  0
 14 16  1  0
 16 17  2  0
 13 18  1  0
 18 19  1  1
 18 20  1  0
 20 21  1  0
 11  2  1  0
 21 12  1  0
 11  6  1  0
 16  7  1  0
M  END
$$$$
