
     RDKit          3D

 17 19  0  0  0  0  0  0  0  0999 V2000
  -17.7468   46.3378  -23.4657 Cl  0  0  0  0  0  0  0  0  0  0  0  0
  -17.1995   45.5188  -21.9995 C   0  0  0  0  0  0  0  0  0  0  0  0
  -16.1820   46.0037  -21.2365 C   0  0  0  0  0  0  0  0  0  0  0  0
  -15.8077   45.3110  -20.1065 C   0  0  0  0  0  0  0  0  0  0  0  0
  -16.4525   44.1253  -19.7321 C   0  0  0  0  0  0  0  0  0  0  0  0
  -17.4680   43.6415  -20.4939 C   0  0  0  0  0  0  0  0  0  0  0  0
  -18.1357   42.4627  -20.1860 N   0  0  0  0  0  0  0  0  0  0  0  0
  -18.1933   41.2888  -20.9761 C   0  0  0  0  0  0  0  0  0  0  0  0
  -17.5998   41.2577  -22.1600 N   0  0  0  0  0  0  0  0  0  0  0  0
  -17.5669   40.2207  -23.0026 C   0  0  0  0  0  0  0  0  0  0  0  0
  -18.1978   39.1018  -22.6066 N   0  0  0  0  0  0  0  0  0  0  0  0
  -18.8263   39.0727  -21.3985 C   0  0  0  0  0  0  0  0  0  0  0  0
  -19.7408   37.8059  -20.5567 S   0  0  0  0  0  0  0  0  0  0  0  0
  -20.1200   38.7577  -19.1013 C   0  0  0  0  0  0  0  0  0  0  0  0
  -19.5163   39.9789  -19.3687 C   0  0  0  0  0  0  0  0  0  0  0  0
  -18.8699   40.1299  -20.5208 C   0  0  0  0  0  0  0  0  0  0  0  0
  -17.8289   44.3518  -21.6251 C   0  0  0  0  0  0  0  0  0  0  0  0
  1  2  1  0
  2  3  2  0
  3  4  1  0
  4  5  2  0
  5  6  1  0
  6  7  1  0
  7  8  1  0
  8  9  2  0
  9 10  1  0
 10 11  2  0
 11 12  1  0
 12 13  1  0
 13 14  1  0
 14 15  2  0
 15 16  1  0
  6 17  2  0
 17  2  1  0
 16  8  1  0
 16 12  2  0
M  END
$$$$
