
     RDKit          3D

 23 23  0  0  0  0  0  0  0  0999 V2000
  -21.2905   43.2577  -21.9649 C   0  0  0  0  0  0  0  0  0  0  0  0
  -19.8479   43.0714  -22.0445 N   0  0  0  0  0  0  0  0  0  0  0  0
  -19.5986   42.0711  -23.0562 C   0  0  0  0  0  0  0  0  0  0  0  0
  -18.1493   41.7746  -23.2488 C   0  0  0  0  0  0  0  0  0  0  0  0
  -17.4478   41.2594  -22.0122 C   0  0  0  0  0  0  0  0  0  0  0  0
  -17.5130   42.1739  -20.9818 O   0  0  0  0  0  0  0  0  0  0  0  0
  -16.5445   42.8558  -20.3268 C   0  0  0  0  0  0  0  0  0  0  0  0
  -15.2225   42.7065  -20.6410 C   0  0  0  0  0  0  0  0  0  0  0  0
  -14.2128   43.3969  -19.9811 C   0  0  0  0  0  0  0  0  0  0  0  0
  -14.5345   44.2631  -18.9763 C   0  0  0  0  0  0  0  0  0  0  0  0
  -13.4519   45.0008  -18.2715 C   0  0  0  0  0  0  0  0  0  0  0  0
  -13.8454   46.2504  -17.8626 F   0  0  0  0  0  0  0  0  0  0  0  0
  -12.3364   45.0643  -19.1035 F   0  0  0  0  0  0  0  0  0  0  0  0
  -13.0466   44.3032  -17.1419 F   0  0  0  0  0  0  0  0  0  0  0  0
  -15.8420   44.4370  -18.6361 C   0  0  0  0  0  0  0  0  0  0  0  0
  -16.8384   43.7499  -19.2938 C   0  0  0  0  0  0  0  0  0  0  0  0
  -18.0133   39.9294  -21.6625 C   0  0  0  0  0  0  0  0  0  0  0  0
  -17.3343   38.7694  -22.0481 C   0  0  0  0  0  0  0  0  0  0  0  0
  -17.7843   37.5138  -21.7638 C   0  0  0  0  0  0  0  0  0  0  0  0
  -18.9585   37.3730  -21.0666 C   0  0  0  0  0  0  0  0  0  0  0  0
  -19.6529   38.5181  -20.6717 C   0  0  0  0  0  0  0  0  0  0  0  0
  -19.1883   39.7777  -20.9646 C   0  0  0  0  0  0  0  0  0  0  0  0
  -17.1024   42.2199  -20.6584 Cl  0  0  0  0  0  0  0  0  0  0  0  0
  1  2  1  0
  2  3  1  0
  3  4  1  0
  4  5  1  0
  5  6  1  0
  6  7  1  0
  7  8  2  0
  8  9  1  0
  9 10  2  0
 10 11  1  0
 11 12  1  0
 11 13  1  0
 11 14  1  0
 10 15  1  0
 15 16  2  0
  5 17  1  0
 17 18  2  0
 18 19  1  0
 19 20  2  0
 20 21  1  0
 21 22  2  0
 16  7  1  0
 22 17  1  0
M  END
$$$$
