
     RDKit          3D

 22 24  0  0  0  0  0  0  0  0999 V2000
  -25.0750   16.1095  -23.9101 C   0  0  0  0  0  0  0  0  0  0  0  0
  -26.0902   15.2167  -23.2804 N   0  0  0  0  0  0  0  0  0  0  0  0
  -26.8370   15.8230  -22.2836 C   0  0  0  0  0  0  0  0  0  0  0  0
  -26.2665   16.8625  -21.6702 O   0  0  0  0  0  0  0  0  0  0  0  0
  -28.1280   15.5160  -21.8047 N   0  0  0  0  0  0  0  0  0  0  0  0
  -29.2807   15.9463  -22.4346 C   0  0  0  0  0  0  0  0  0  0  0  0
  -30.3669   15.4722  -21.8239 N   0  0  0  0  0  0  0  0  0  0  0  0
  -30.0024   14.7244  -20.7880 C   0  0  0  0  0  0  0  0  0  0  0  0
  -30.8286   14.0023  -19.8279 C   0  0  0  0  0  0  0  0  0  0  0  0
  -31.9909   14.5568  -19.3785 C   0  0  0  0  0  0  0  0  0  0  0  0
  -32.7637   13.8405  -18.4571 C   0  0  0  0  0  0  0  0  0  0  0  0
  -32.3579   12.5996  -18.0129 C   0  0  0  0  0  0  0  0  0  0  0  0
  -31.2140   12.0787  -18.4694 N   0  0  0  0  0  4  0  0  0  0  0  0
  -30.8046   10.8310  -18.0237 O   0  0  0  0  0  1  0  0  0  0  0  0
  -30.4469   12.7637  -19.3691 C   0  0  0  0  0  0  0  0  0  0  0  0
  -28.5932   14.7712  -20.8039 C   0  0  0  0  0  0  0  0  0  0  0  0
  -26.1393   13.8542  -23.6294 C   0  0  0  0  0  0  0  0  0  0  0  0
  -26.7194   12.9465  -22.5735 C   0  0  0  0  0  0  0  0  0  0  0  0
  -25.8432   11.7475  -22.2738 C   0  0  0  0  0  0  0  0  0  0  0  0
  -24.4497   12.1789  -21.8624 C   0  0  0  0  0  0  0  0  0  0  0  0
  -23.8447   13.1355  -22.8545 C   0  0  0  0  0  0  0  0  0  0  0  0
  -24.7279   13.3703  -24.0237 C   0  0  0  0  0  0  0  0  0  0  0  0
  1  2  1  0
  2  3  1  0
  3  4  2  0
  3  5  1  0
  5  6  1  0
  6  7  2  0
  7  8  1  0
  8  9  1  0
  9 10  2  0
 10 11  1  0
 11 12  2  0
 12 13  1  0
 13 14  1  0
 13 15  2  0
  8 16  2  0
  2 17  1  0
 17 18  1  0
 18 19  1  0
 19 20  1  0
 20 21  1  0
 21 22  1  0
 16  5  1  0
 22 17  1  0
 15  9  1  0
M  CHG  2  13   1  14  -1
M  END
$$$$
