
     RDKit          3D

 31 33  0  0  0  0  0  0  0  0999 V2000
  -28.2537   13.3719  -20.4477 O   0  0  0  0  0  0  0  0  0  0  0  0
  -29.2266   13.9083  -21.0079 C   0  0  0  0  0  0  0  0  0  0  0  0
  -30.6086   13.4928  -20.6409 C   0  0  0  0  0  0  0  0  0  0  0  0
  -30.5385   12.3858  -19.5841 C   0  0  0  0  0  0  0  0  0  0  0  0
  -31.8992   11.9418  -19.2357 C   0  0  0  0  0  0  0  0  0  0  0  0
  -32.5147   12.4378  -18.1138 C   0  0  0  0  0  0  0  0  0  0  0  0
  -33.8013   12.0085  -17.7965 C   0  0  0  0  0  0  0  0  0  0  0  0
  -34.4682   11.0943  -18.5884 C   0  0  0  0  0  0  0  0  0  0  0  0
  -35.7558   10.7051  -18.2149 O   0  0  0  0  0  0  0  0  0  0  0  0
  -33.8409   10.6025  -19.7129 C   0  0  0  0  0  0  0  0  0  0  0  0
  -32.5558   11.0355  -20.0241 C   0  0  0  0  0  0  0  0  0  0  0  0
  -29.0285   14.9406  -22.0283 C   0  0  0  0  0  0  0  0  0  0  0  0
  -30.1516   15.3312  -22.7588 C   0  0  0  0  0  0  0  0  0  0  0  0
  -31.3772   14.7352  -22.4900 O   0  0  0  0  0  0  0  0  0  0  0  0
  -30.1011   16.2830  -23.7367 C   0  0  0  0  0  0  0  0  0  0  0  0
  -28.8861   16.8967  -24.0270 C   0  0  0  0  0  0  0  0  0  0  0  0
  -28.8474   17.8628  -25.0228 O   0  0  0  0  0  0  0  0  0  0  0  0
  -27.7992   16.5062  -23.3075 C   0  0  0  0  0  0  0  0  0  0  0  0
  -27.8178   15.5265  -22.2917 C   0  0  0  0  0  0  0  0  0  0  0  0
  -26.6488   15.2647  -21.6855 O   0  0  0  0  0  0  0  0  0  0  0  0
  -25.3911   14.9899  -22.0327 C   0  0  2  0  0  0  0  0  0  0  0  0
  -25.3285   13.6568  -22.5014 O   0  0  0  0  0  0  0  0  0  0  0  0
  -24.0528   13.4613  -22.9957 C   0  0  2  0  0  0  0  0  0  0  0  0
  -23.9579   12.2340  -23.8729 C   0  0  0  0  0  0  0  0  0  0  0  0
  -25.1899   12.0123  -24.4808 O   0  0  0  0  0  0  0  0  0  0  0  0
  -23.1286   13.3226  -21.7798 C   0  0  1  0  0  0  0  0  0  0  0  0
  -21.8855   12.8562  -22.1452 O   0  0  0  0  0  0  0  0  0  0  0  0
  -23.0563   14.7261  -21.1742 C   0  0  2  0  0  0  0  0  0  0  0  0
  -22.2531   14.7819  -20.0649 O   0  0  0  0  0  0  0  0  0  0  0  0
  -24.4613   15.1275  -20.8141 C   0  0  1  0  0  0  0  0  0  0  0  0
  -24.4456   16.4843  -20.4964 O   0  0  0  0  0  0  0  0  0  0  0  0
  1  2  2  0
  2  3  1  0
  3  4  1  0
  4  5  1  0
  5  6  2  0
  6  7  1  0
  7  8  2  0
  8  9  1  0
  8 10  1  0
 10 11  2  0
  2 12  1  0
 12 13  2  0
 13 14  1  0
 13 15  1  0
 15 16  2  0
 16 17  1  0
 16 18  1  0
 18 19  2  0
 19 20  1  0
 21 20  1  1
 21 22  1  0
 22 23  1  0
 23 24  1  1
 24 25  1  0
 23 26  1  0
 26 27  1  6
 26 28  1  0
 28 29  1  1
 28 30  1  0
 30 31  1  6
 11  5  1  0
 19 12  1  0
 30 21  1  0
M  END
$$$$
