
     RDKit          3D

 32 33  0  0  0  0  0  0  0  0999 V2000
  -19.0185   37.9933  -20.2025 C   0  0  0  0  0  0  0  0  0  0  0  0
  -19.5552   39.1422  -20.9963 C   0  0  0  0  0  0  0  0  0  0  0  0
  -20.3479   38.6577  -22.2106 C   0  0  0  0  0  0  0  0  0  0  0  0
  -18.5197   40.0919  -21.4334 C   0  0  0  0  0  0  0  0  0  0  0  0
  -17.8541   39.9531  -22.6417 C   0  0  0  0  0  0  0  0  0  0  0  0
  -16.8839   40.8446  -23.0495 C   0  0  0  0  0  0  0  0  0  0  0  0
  -16.5859   41.9039  -22.2025 C   0  0  0  0  0  0  0  0  0  0  0  0
  -17.2493   42.0567  -20.9803 C   0  0  0  0  0  0  0  0  0  0  0  0
  -16.9272   43.1828  -20.0853 C   0  0  0  0  0  0  0  0  0  0  0  0
  -17.7003   44.3761  -20.5914 C   0  0  0  0  0  0  0  0  0  0  0  0
  -15.4531   43.5466  -20.1321 C   0  0  0  0  0  0  0  0  0  0  0  0
  -18.2014   41.1538  -20.6150 C   0  0  0  0  0  0  0  0  0  0  0  0
  -18.8791   41.2922  -19.3913 N   0  0  0  0  0  0  0  0  0  0  0  0
  -20.1394   41.9319  -19.2033 C   0  0  0  0  0  0  0  0  0  0  0  0
  -20.6663   42.4033  -20.2146 O   0  0  0  0  0  0  0  0  0  0  0  0
  -20.7132   41.9931  -17.9129 N   0  0  0  0  0  0  0  0  0  0  0  0
  -21.9360   42.5724  -17.5344 C   0  0  0  0  0  0  0  0  0  0  0  0
  -22.2088   44.0157  -17.6513 C   0  0  0  0  0  0  0  0  0  0  0  0
  -23.6101   44.2036  -17.0713 C   0  0  0  0  0  0  0  0  0  0  0  0
  -24.6856   44.1065  -17.9065 C   0  0  0  0  0  0  0  0  0  0  0  0
  -25.9923   44.2690  -17.4328 C   0  0  0  0  0  0  0  0  0  0  0  0
  -26.1980   44.5328  -16.0946 C   0  0  0  0  0  0  0  0  0  0  0  0
  -27.5205   44.7032  -15.5842 N   0  0  0  0  0  0  0  0  0  0  0  0
  -27.7058   44.9789  -14.1736 C   0  0  0  0  0  0  0  0  0  0  0  0
  -28.6659   44.6031  -16.4607 C   0  0  0  0  0  0  0  0  0  0  0  0
  -25.1003   44.6270  -15.2682 C   0  0  0  0  0  0  0  0  0  0  0  0
  -23.7996   44.4650  -15.7402 C   0  0  0  0  0  0  0  0  0  0  0  0
  -21.2144   44.8475  -16.8565 C   0  0  0  0  0  0  0  0  0  0  0  0
  -20.2181   45.3478  -17.8921 C   0  0  0  0  0  0  0  0  0  0  0  0
  -21.0045   45.4438  -19.1862 C   0  0  0  0  0  0  0  0  0  0  0  0
  -22.2805   44.6585  -18.9877 C   0  0  0  0  0  0  0  0  0  0  0  0
  -21.6586   43.1183  -18.3830 Cl  0  0  0  0  0  0  0  0  0  0  0  0
  1  2  1  0
  2  3  1  0
  2  4  1  0
  4  5  2  0
  5  6  1  0
  6  7  2  0
  7  8  1  0
  8  9  1  0
  9 10  1  0
  9 11  1  0
  8 12  2  0
 12 13  1  0
 13 14  1  0
 14 15  2  0
 14 16  1  0
 16 17  1  0
 17 18  1  0
 18 19  1  0
 19 20  2  0
 20 21  1  0
 21 22  2  0
 22 23  1  0
 23 24  1  0
 23 25  1  0
 22 26  1  0
 26 27  2  0
 18 28  1  0
 28 29  1  0
 29 30  1  0
 30 31  1  0
 12  4  1  0
 31 18  1  0
 27 19  1  0
M  END
$$$$
