
     RDKit          3D

 29 30  0  0  0  0  0  0  0  0999 V2000
  -21.0361   31.0256  -19.4514 O   0  0  0  0  0  0  0  0  0  0  0  0
  -20.3095   30.8990  -20.4666 C   0  0  0  0  0  0  0  0  0  0  0  0
  -20.7376   30.1051  -21.5023 O   0  0  0  0  0  0  0  0  0  0  0  0
  -19.0173   31.6039  -20.5223 C   0  0  0  0  0  0  0  0  0  0  0  0
  -18.7257   32.1388  -21.9116 C   0  0  0  0  0  0  0  0  0  0  0  0
  -19.2840   33.5612  -22.0591 C   0  0  0  0  0  0  0  0  0  0  0  0
  -18.9787   34.1374  -23.3616 C   0  0  0  0  0  0  0  0  0  0  0  0
  -19.4702   35.2308  -23.8787 C   0  0  0  0  0  0  0  0  0  0  0  0
  -19.0665   36.5349  -23.3718 C   0  0  0  0  0  0  0  0  0  0  0  0
  -20.2076   37.5191  -23.2568 C   0  0  1  0  0  0  0  0  0  0  0  0
  -21.5074   36.9324  -23.8006 C   0  0  1  0  0  0  0  0  0  0  0  0
  -21.8657   35.7666  -23.1438 O   0  0  0  0  0  0  0  0  0  0  0  0
  -22.4953   38.0087  -23.3454 C   0  0  0  0  0  0  0  0  0  0  0  0
  -21.9302   38.5579  -22.0522 C   0  0  1  0  0  0  0  0  0  0  0  0
  -22.7825   38.3359  -20.9724 O   0  0  0  0  0  0  0  0  0  0  0  0
  -20.5933   37.8330  -21.8529 C   0  0  2  0  0  0  0  0  0  0  0  0
  -19.6260   38.6585  -21.1214 C   0  0  0  0  0  0  0  0  0  0  0  0
  -19.2787   39.8338  -21.5922 C   0  0  0  0  0  0  0  0  0  0  0  0
  -18.1038   40.6118  -21.1209 C   0  0  1  0  0  0  0  0  0  0  0  0
  -17.0741   40.4192  -22.0408 O   0  0  0  0  0  0  0  0  0  0  0  0
  -18.4132   42.1151  -21.1457 C   0  0  0  0  0  0  0  0  0  0  0  0
  -17.9680   42.6361  -19.9082 O   0  0  0  0  0  0  0  0  0  0  0  0
  -16.8384   43.4470  -19.9029 C   0  0  0  0  0  0  0  0  0  0  0  0
  -16.7985   44.6530  -20.5769 C   0  0  0  0  0  0  0  0  0  0  0  0
  -15.6866   45.4727  -20.5841 C   0  0  0  0  0  0  0  0  0  0  0  0
  -14.5655   45.0570  -19.8800 C   0  0  0  0  0  0  0  0  0  0  0  0
  -14.5547   43.8668  -19.1939 C   0  0  0  0  0  0  0  0  0  0  0  0
  -13.1362   43.3785  -18.3246 Cl  0  0  0  0  0  0  0  0  0  0  0  0
  -15.6942   43.0861  -19.2206 C   0  0  0  0  0  0  0  0  0  0  0  0
  1  2  2  0
  2  3  1  0
  2  4  1  0
  4  5  1  0
  5  6  1  0
  6  7  1  0
  7  8  2  0
  8  9  1  0
 10  9  1  1
 10 11  1  0
 11 12  1  1
 11 13  1  0
 13 14  1  0
 14 15  1  1
 14 16  1  0
 16 17  1  6
 17 18  2  0
 18 19  1  0
 19 20  1  6
 19 21  1  0
 21 22  1  0
 22 23  1  0
 23 24  2  0
 24 25  1  0
 25 26  2  0
 26 27  1  0
 27 28  1  0
 27 29  2  0
 16 10  1  0
 29 23  1  0
M  END
$$$$
