
     RDKit          3D

 24 26  0  0  0  0  0  0  0  0999 V2000
  -11.9990   -2.2127  -35.3826 C   0  0  0  0  0  0  0  0  0  0  0  0
  -13.4131   -2.7386  -35.3271 C   0  0  2  0  0  0  0  0  0  0  0  0
  -13.9175   -2.9230  -33.9336 C   0  0  0  0  0  0  0  0  0  0  0  0
  -14.0601   -1.6630  -33.1826 C   0  0  0  0  0  0  0  0  0  0  0  0
  -13.0615   -1.0534  -32.5269 N   0  0  0  0  0  0  0  0  0  0  0  0
  -13.2608    0.0919  -31.8635 C   0  0  0  0  0  0  0  0  0  0  0  0
  -12.3392    0.6975  -31.2314 O   0  0  0  0  0  0  0  0  0  0  0  0
  -14.5038    0.6789  -31.8359 C   0  0  0  0  0  0  0  0  0  0  0  0
  -15.0535    1.8071  -31.2790 C   0  0  0  0  0  0  0  0  0  0  0  0
  -16.3487    1.8245  -31.6228 N   0  0  0  0  0  0  0  0  0  0  0  0
  -16.6591    0.7872  -32.3581 N   0  0  0  0  0  0  0  0  0  0  0  0
  -17.9077    0.4220  -32.9291 C   0  0  0  0  0  0  0  0  0  0  0  0
  -18.9818    0.0285  -32.1595 C   0  0  0  0  0  0  0  0  0  0  0  0
  -20.1800   -0.3197  -32.7427 C   0  0  0  0  0  0  0  0  0  0  0  0
  -20.3687   -0.2944  -34.1088 C   0  0  0  0  0  0  0  0  0  0  0  0
  -19.2849    0.1013  -34.8642 C   0  0  0  0  0  0  0  0  0  0  0  0
  -18.0784    0.4534  -34.2992 C   0  0  0  0  0  0  0  0  0  0  0  0
  -16.7306    0.9514  -35.3322 Cl  0  0  0  0  0  0  0  0  0  0  0  0
  -15.5389    0.0496  -32.5138 C   0  0  0  0  0  0  0  0  0  0  0  0
  -15.2754   -1.0891  -33.1556 N   0  0  0  0  0  0  0  0  0  0  0  0
  -13.3986   -4.1159  -35.9886 C   0  0  0  0  0  0  0  0  0  0  0  0
  -14.6760   -4.6181  -35.8974 F   0  0  0  0  0  0  0  0  0  0  0  0
  -12.9338   -4.0556  -37.2758 F   0  0  0  0  0  0  0  0  0  0  0  0
  -12.6022   -4.9176  -35.1750 F   0  0  0  0  0  0  0  0  0  0  0  0
  2  1  1  1
  2  3  1  0
  3  4  1  0
  4  5  2  0
  5  6  1  0
  6  7  2  0
  6  8  1  0
  8  9  1  0
  9 10  2  0
 10 11  1  0
 11 12  1  0
 12 13  2  0
 13 14  1  0
 14 15  2  0
 15 16  1  0
 16 17  2  0
 17 18  1  0
 11 19  1  0
 19 20  1  0
  2 21  1  0
 21 22  1  0
 21 23  1  0
 21 24  1  0
 20  4  1  0
 19  8  2  0
 17 12  1  0
M  END
$$$$
