
     RDKit          3D

 27 30  0  0  0  0  0  0  0  0999 V2000
  -20.1240   48.8058  -23.9191 C   0  0  0  0  0  0  0  0  0  0  0  0
  -19.1268   47.9200  -23.2616 C   0  0  0  0  0  0  0  0  0  0  0  0
  -18.0659   48.2713  -22.4665 C   0  0  0  0  0  0  0  0  0  0  0  0
  -17.4319   47.1075  -22.0929 C   0  0  0  0  0  0  0  0  0  0  0  0
  -16.2571   46.9366  -21.2540 C   0  0  0  0  0  0  0  0  0  0  0  0
  -15.4858   47.9950  -20.8972 N   0  0  0  0  0  0  0  0  0  0  0  0
  -14.4138   47.8618  -20.1355 N   0  0  0  0  0  0  0  0  0  0  0  0
  -14.0875   46.6084  -19.7026 C   0  0  0  0  0  0  0  0  0  0  0  0
  -14.8436   45.5249  -20.0447 C   0  0  0  0  0  0  0  0  0  0  0  0
  -14.7089   44.1836  -19.7299 C   0  0  0  0  0  0  0  0  0  0  0  0
  -13.7225   43.4785  -18.9312 C   0  0  0  0  0  0  0  0  0  0  0  0
  -12.2892   43.7234  -19.2844 C   0  0  0  0  0  0  0  0  0  0  0  0
  -13.9233   41.9773  -19.0010 C   0  0  0  0  0  0  0  0  0  0  0  0
  -13.8979   43.8907  -17.4704 C   0  0  0  0  0  0  0  0  0  0  0  0
  -15.7699   43.5707  -20.3607 C   0  0  0  0  0  0  0  0  0  0  0  0
  -16.1220   42.2224  -20.3807 O   0  0  0  0  0  0  0  0  0  0  0  0
  -17.0627   41.6770  -21.2478 C   0  0  0  0  0  0  0  0  0  0  0  0
  -18.3845   41.5885  -20.6008 C   0  0  0  0  0  0  0  0  0  0  0  0
  -19.5080   42.1763  -21.0401 N   0  0  0  0  0  0  0  0  0  0  0  0
  -20.5219   41.8762  -20.1973 C   0  0  0  0  0  0  0  0  0  0  0  0
  -20.0011   41.0974  -19.2380 N   0  0  0  0  0  0  0  0  0  0  0  0
  -18.7121   40.9281  -19.4876 N   0  0  0  0  0  0  0  0  0  0  0  0
  -17.8265   40.1271  -18.6373 C   0  0  0  0  0  0  0  0  0  0  0  0
  -16.4609   44.5164  -20.9939 N   0  0  0  0  0  0  0  0  0  0  0  0
  -15.9287   45.7062  -20.8235 N   0  0  0  0  0  0  0  0  0  0  0  0
  -18.1332   46.1093  -22.6750 N   0  0  0  0  0  0  0  0  0  0  0  0
  -19.1335   46.6205  -23.3624 O   0  0  0  0  0  0  0  0  0  0  0  0
  1  2  1  0
  2  3  2  0
  3  4  1  0
  4  5  1  0
  5  6  2  0
  6  7  1  0
  7  8  2  0
  8  9  1  0
  9 10  2  0
 10 11  1  0
 11 12  1  0
 11 13  1  0
 11 14  1  0
 10 15  1  0
 15 16  1  0
 16 17  1  0
 17 18  1  0
 18 19  2  0
 19 20  1  0
 20 21  2  0
 21 22  1  0
 22 23  1  0
 15 24  2  0
 24 25  1  0
  4 26  2  0
 26 27  1  0
 27  2  1  0
 25  5  1  0
 25  9  1  0
 22 18  1  0
M  END
$$$$
