
     RDKit          3D

 11 11  0  0  0  0  0  0  0  0999 V2000
  -18.0799   41.9627  -20.6172 N   0  0  0  0  0  0  0  0  0  0  0  0
  -16.8482   42.6237  -20.6050 N   0  0  0  0  0  0  0  0  0  0  0  0
  -16.4691   43.5565  -19.6068 C   0  0  0  0  0  0  0  0  0  0  0  0
  -17.3479   43.8499  -18.7535 O   0  0  0  0  0  0  0  0  0  0  0  0
  -15.1588   44.1689  -19.5249 C   0  0  0  0  0  0  0  0  0  0  0  0
  -14.7100   44.8393  -18.3996 C   0  0  0  0  0  0  0  0  0  0  0  0
  -13.4541   45.4095  -18.3613 C   0  0  0  0  0  0  0  0  0  0  0  0
  -12.6143   45.3199  -19.4579 C   0  0  0  0  0  0  0  0  0  0  0  0
  -11.3204   45.9055  -19.4230 N   0  0  0  0  0  0  0  0  0  0  0  0
  -13.0965   44.6450  -20.5589 C   0  0  0  0  0  0  0  0  0  0  0  0
  -14.3379   44.0616  -20.6440 C   0  0  0  0  0  0  0  0  0  0  0  0
  1  2  1  0
  2  3  1  0
  3  4  2  0
  3  5  1  0
  5  6  2  0
  6  7  1  0
  7  8  2  0
  8  9  1  0
  8 10  1  0
 10 11  2  0
 11  5  1  0
M  END
$$$$
