
     RDKit          3D

 23 23  0  0  0  0  0  0  0  0999 V2000
  -15.7924   12.3598  -28.3639 C   0  0  0  0  0  0  0  0  0  0  0  0
  -15.3732   13.6691  -28.4956 N   0  0  0  0  0  0  0  0  0  0  0  0
  -16.2489   14.7511  -28.3166 C   0  0  0  0  0  0  0  0  0  0  0  0
  -17.3076   14.8410  -29.3762 C   0  0  0  0  0  0  0  0  0  0  0  0
  -18.6016   14.7805  -29.1180 C   0  0  0  0  0  0  0  0  0  0  0  0
  -19.6128   14.8649  -30.1384 C   0  0  0  0  0  0  0  0  0  0  0  0
  -20.4587   14.9463  -30.9952 C   0  0  0  0  0  0  0  0  0  0  0  0
  -21.4704   15.0389  -32.0486 C   0  0  0  0  0  0  0  0  0  0  0  0
  -20.8628   14.9168  -33.4243 C   0  0  0  0  0  0  0  0  0  0  0  0
  -22.1876   16.3397  -31.8574 C   0  0  0  0  0  0  0  0  0  0  0  0
  -22.4943   13.9064  -31.9130 C   0  0  0  0  0  0  0  0  0  0  0  0
  -14.0192   14.0523  -28.5585 C   0  0  0  0  0  0  0  0  0  0  0  0
  -13.1262   13.5446  -27.5243 C   0  0  0  0  0  0  0  0  0  0  0  0
  -12.9425   14.3127  -26.3989 C   0  0  0  0  0  0  0  0  0  0  0  0
  -12.1724   13.8843  -25.3339 C   0  0  0  0  0  0  0  0  0  0  0  0
  -11.5939   12.6470  -25.4518 C   0  0  0  0  0  0  0  0  0  0  0  0
  -11.7516   11.8511  -26.5582 C   0  0  0  0  0  0  0  0  0  0  0  0
  -11.1534   10.6188  -26.6775 C   0  0  0  0  0  0  0  0  0  0  0  0
  -11.2855    9.8197  -27.7857 C   0  0  0  0  0  0  0  0  0  0  0  0
  -12.0515   10.2884  -28.8101 C   0  0  0  0  0  0  0  0  0  0  0  0
  -12.6649   11.5133  -28.7268 C   0  0  0  0  0  0  0  0  0  0  0  0
  -12.5298   12.3123  -27.6075 C   0  0  0  0  0  0  0  0  0  0  0  0
  -16.9535   13.8056  -29.4888 Cl  0  0  0  0  0  0  0  0  0  0  0  0
  1  2  1  0
  2  3  1  0
  3  4  1  0
  4  5  2  0
  5  6  1  0
  6  7  3  0
  7  8  1  0
  8  9  1  0
  8 10  1  0
  8 11  1  0
  2 12  1  0
 12 13  1  0
 13 14  2  0
 14 15  1  0
 15 16  2  0
 16 17  1  0
 17 18  2  0
 18 19  1  0
 19 20  2  0
 20 21  1  0
 21 22  2  0
 22 13  1  0
 22 17  1  0
M  END
$$$$
