
     RDKit          3D

 39 44  0  0  0  0  0  0  0  0999 V2000
  -20.1593   21.2831  -26.0700 C   0  0  0  0  0  0  0  0  0  0  0  0
  -21.3799   21.9175  -25.6798 O   0  0  0  0  0  0  0  0  0  0  0  0
  -22.5638   21.2035  -25.9587 C   0  0  0  0  0  0  0  0  0  0  0  0
  -23.7616   21.8760  -25.8812 C   0  0  0  0  0  0  0  0  0  0  0  0
  -24.9338   21.2044  -26.1487 C   0  0  0  0  0  0  0  0  0  0  0  0
  -24.9013   19.8722  -26.4924 C   0  0  0  0  0  0  0  0  0  0  0  0
  -26.1755   19.2064  -26.7560 C   0  0  0  0  0  0  0  0  0  0  0  0
  -26.5818   18.1706  -25.8906 N   0  0  0  0  0  0  0  0  0  0  0  0
  -27.1317   18.5464  -24.6057 C   0  0  0  0  0  0  0  0  0  0  0  0
  -28.4976   18.2048  -25.0676 C   0  0  0  0  0  0  0  0  0  0  0  0
  -27.7599   17.4165  -26.1268 C   0  0  0  0  0  0  0  0  0  0  0  0
  -27.5699   16.0246  -25.4993 C   0  0  0  0  0  0  0  0  0  0  0  0
  -27.3523   16.2050  -24.0854 N   0  0  0  0  0  0  0  0  0  0  0  0
  -27.7786   15.2820  -23.0727 C   0  0  0  0  0  0  0  0  0  0  0  0
  -27.8640   15.6239  -21.7450 C   0  0  0  0  0  0  0  0  0  0  0  0
  -28.2846   14.6870  -20.7932 C   0  0  0  0  0  0  0  0  0  0  0  0
  -28.6165   13.4253  -21.1633 C   0  0  0  0  0  0  0  0  0  0  0  0
  -29.0650   12.4613  -20.1639 C   0  0  0  0  0  0  0  0  0  0  0  0
  -30.3481   12.0258  -20.0802 C   0  0  0  0  0  0  0  0  0  0  0  0
  -30.7496   11.0560  -19.1225 C   0  0  0  0  0  0  0  0  0  0  0  0
  -32.0068   10.6544  -19.0711 O   0  0  0  0  0  0  0  0  0  0  0  0
  -32.9217    9.7028  -19.0900 C   0  0  0  0  0  0  0  0  0  0  0  0
  -34.3357   10.0658  -18.7822 C   0  0  0  0  0  0  0  0  0  0  0  0
  -34.9154    9.0543  -17.8058 C   0  0  0  0  0  0  0  0  0  0  0  0
  -34.5519   11.4625  -18.2991 C   0  0  0  0  0  0  0  0  0  0  0  0
  -35.1339    9.9558  -19.9594 O   0  0  0  0  0  0  0  0  0  0  0  0
  -29.7554   10.5899  -18.2856 C   0  0  0  0  0  0  0  0  0  0  0  0
  -28.5039   11.0428  -18.3998 N   0  0  0  0  0  0  0  0  0  0  0  0
  -27.4487   10.6785  -17.6503 N   0  0  0  0  0  0  0  0  0  0  0  0
  -26.3802   11.3595  -18.0687 C   0  0  0  0  0  0  0  0  0  0  0  0
  -26.7923   12.1822  -19.1241 C   0  0  0  0  0  0  0  0  0  0  0  0
  -25.9541   13.0895  -19.8449 C   0  0  0  0  0  0  0  0  0  0  0  0
  -25.2657   13.8199  -20.4501 N   0  0  0  0  0  0  0  0  0  0  0  0
  -28.1137   11.9498  -19.2919 C   0  0  0  0  0  0  0  0  0  0  0  0
  -28.5294   13.0975  -22.5006 C   0  0  0  0  0  0  0  0  0  0  0  0
  -28.1224   14.0052  -23.4183 N   0  0  0  0  0  0  0  0  0  0  0  0
  -26.6596   17.4367  -23.6507 C   0  0  0  0  0  0  0  0  0  0  0  0
  -23.6975   19.2320  -26.5608 C   0  0  0  0  0  0  0  0  0  0  0  0
  -22.5774   19.9115  -26.2946 N   0  0  0  0  0  0  0  0  0  0  0  0
  1  2  1  0
  2  3  1  0
  3  4  2  0
  4  5  1  0
  5  6  2  0
  6  7  1  0
  7  8  1  0
  8  9  1  0
  9 10  1  0
 10 11  1  0
 11 12  1  0
 12 13  1  0
 13 14  1  0
 14 15  2  0
 15 16  1  0
 16 17  2  0
 17 18  1  0
 18 19  2  0
 19 20  1  0
 20 21  1  0
 21 22  1  0
 22 23  1  0
 23 24  1  0
 23 25  1  0
 23 26  1  0
 20 27  2  0
 27 28  1  0
 28 29  1  0
 29 30  2  0
 30 31  1  0
 31 32  1  0
 32 33  3  0
 31 34  2  0
 17 35  1  0
 35 36  2  0
 13 37  1  0
  6 38  1  0
 38 39  2  0
 39  3  1  0
 11  8  1  0
 36 14  1  0
 37  9  1  0
 34 18  1  0
 34 28  1  0
M  END
$$$$
