
     RDKit          3D

 27 29  0  0  0  0  0  0  0  0999 V2000
  -30.4177   24.3487  -38.3064 C   0  0  0  0  0  0  0  0  0  0  0  0
  -29.3736   24.2407  -37.2362 C   0  0  0  0  0  0  0  0  0  0  0  0
  -29.6592   24.6279  -35.9533 C   0  0  0  0  0  0  0  0  0  0  0  0
  -28.7185   24.5425  -34.9370 C   0  0  0  0  0  0  0  0  0  0  0  0
  -27.4548   24.0457  -35.2551 C   0  0  0  0  0  0  0  0  0  0  0  0
  -26.4515   23.9558  -34.1721 C   0  0  0  0  0  0  0  0  0  0  0  0
  -27.1369   23.6484  -36.5345 C   0  0  0  0  0  0  0  0  0  0  0  0
  -25.7989   23.1409  -36.7841 C   0  0  0  0  0  0  0  0  0  0  0  0
  -25.3298   21.8556  -36.9488 C   0  0  0  0  0  0  0  0  0  0  0  0
  -23.9674   21.8822  -37.1646 C   0  0  0  0  0  0  0  0  0  0  0  0
  -23.0438   20.7380  -37.3920 C   0  0  0  0  0  0  0  0  0  0  0  0
  -23.4801   20.0893  -38.5320 F   0  0  0  0  0  0  0  0  0  0  0  0
  -21.7741   21.2418  -37.6046 F   0  0  0  0  0  0  0  0  0  0  0  0
  -23.0265   19.9197  -36.2970 F   0  0  0  0  0  0  0  0  0  0  0  0
  -23.6281   23.1806  -37.1282 N   0  0  0  0  0  0  0  0  0  0  0  0
  -24.6988   23.9358  -36.9044 N   0  0  0  0  0  0  0  0  0  0  0  0
  -24.6884   25.3526  -36.8071 C   0  0  0  0  0  0  0  0  0  0  0  0
  -25.3432   26.2040  -37.6652 C   0  0  0  0  0  0  0  0  0  0  0  0
  -25.3045   27.5721  -37.5313 C   0  0  0  0  0  0  0  0  0  0  0  0
  -24.5792   28.1562  -36.4915 C   0  0  0  0  0  0  0  0  0  0  0  0
  -24.5398   29.9003  -36.3347 S   0  0  0  0  0  6  0  0  0  0  0  0
  -23.6981   30.5876  -37.6605 N   0  0  0  0  0  0  0  0  0  0  0  0
  -25.9401   30.3959  -36.3192 O   0  0  0  0  0  0  0  0  0  0  0  0
  -23.8098   30.2966  -35.0784 O   0  0  0  0  0  0  0  0  0  0  0  0
  -23.9221   27.3223  -35.6292 C   0  0  0  0  0  0  0  0  0  0  0  0
  -23.9752   25.9533  -35.7830 C   0  0  0  0  0  0  0  0  0  0  0  0
  -28.1101   23.7548  -37.5066 C   0  0  0  0  0  0  0  0  0  0  0  0
  1  2  1  0
  2  3  2  0
  3  4  1  0
  4  5  2  0
  5  6  1  0
  5  7  1  0
  7  8  1  0
  8  9  2  0
  9 10  1  0
 10 11  1  0
 11 12  1  0
 11 13  1  0
 11 14  1  0
 10 15  2  0
 15 16  1  0
 16 17  1  0
 17 18  2  0
 18 19  1  0
 19 20  2  0
 20 21  1  0
 21 22  1  0
 21 23  2  0
 21 24  2  0
 20 25  1  0
 25 26  2  0
  7 27  2  0
 27  2  1  0
 16  8  1  0
 26 17  1  0
M  END
$$$$
