
     RDKit          3D

 29 29  0  0  0  0  0  0  0  0999 V2000
   -9.2286   11.7440  -26.0177 C   0  0  0  0  0  0  0  0  0  0  0  0
  -10.4433   11.4904  -26.7246 N   0  0  0  0  0  0  0  0  0  0  0  0
  -10.4276   11.8970  -28.0869 C   0  0  0  0  0  0  0  0  0  0  0  0
  -11.4684   12.9287  -28.4549 C   0  0  0  0  0  0  0  0  0  0  0  0
  -12.7906   12.6044  -27.9569 N   0  0  0  0  0  0  0  0  0  0  0  0
  -13.9331   13.1970  -28.5555 C   0  0  0  0  0  0  0  0  0  0  0  0
  -13.8096   14.1337  -29.5583 C   0  0  0  0  0  0  0  0  0  0  0  0
  -14.9256   14.7088  -30.1439 C   0  0  0  0  0  0  0  0  0  0  0  0
  -16.2055   14.3752  -29.7556 C   0  0  0  0  0  0  0  0  0  0  0  0
  -17.3296   15.0222  -30.4188 C   0  0  0  0  0  0  0  0  0  0  0  0
  -17.1116   15.8651  -31.3257 O   0  0  0  0  0  0  0  0  0  0  0  0
  -18.6927   14.7731  -30.1177 N   0  0  0  0  0  0  0  0  0  0  0  0
  -19.7642   15.4161  -30.7787 C   0  0  0  0  0  0  0  0  0  0  0  0
  -20.2562   16.5994  -30.2793 C   0  0  0  0  0  0  0  0  0  0  0  0
  -21.3173   17.2637  -30.9088 C   0  0  0  0  0  0  0  0  0  0  0  0
  -21.8811   16.7217  -32.0522 C   0  0  0  0  0  0  0  0  0  0  0  0
  -22.9977   17.3849  -32.7467 C   0  0  2  0  0  0  0  0  0  0  0  0
  -24.0873   16.4450  -33.3250 C   0  0  0  0  0  0  0  0  0  0  0  0
  -23.1730   17.2381  -34.2120 C   0  0  1  0  0  0  0  0  0  0  0  0
  -23.7986   18.2885  -34.9749 N   0  0  0  0  0  0  0  0  0  0  0  0
  -21.3926   15.5390  -32.5551 C   0  0  0  0  0  0  0  0  0  0  0  0
  -20.3357   14.8950  -31.9122 C   0  0  0  0  0  0  0  0  0  0  0  0
  -16.3382   13.4506  -28.7653 C   0  0  0  0  0  0  0  0  0  0  0  0
  -15.2177   12.8736  -28.1779 C   0  0  0  0  0  0  0  0  0  0  0  0
  -12.8641   11.6744  -26.8497 C   0  0  0  0  0  0  0  0  0  0  0  0
  -11.6212   11.9188  -26.0014 C   0  0  0  0  0  0  0  0  0  0  0  0
  -17.2225   14.6266  -30.1844 Cl  0  0  0  0  0  0  0  0  0  0  0  0
  -17.2216   14.6263  -30.1839 Cl  0  0  0  0  0  0  0  0  0  0  0  0
  -17.2258   14.6279  -30.1862 Cl  0  0  0  0  0  0  0  0  0  0  0  0
  1  2  1  0
  2  3  1  0
  3  4  1  0
  4  5  1  0
  5  6  1  0
  6  7  2  0
  7  8  1  0
  8  9  2  0
  9 10  1  0
 10 11  2  0
 10 12  1  0
 12 13  1  0
 13 14  2  0
 14 15  1  0
 15 16  2  0
 17 16  1  6
 17 18  1  0
 18 19  1  0
 19 20  1  1
 16 21  1  0
 21 22  2  0
  9 23  1  0
 23 24  2  0
  5 25  1  0
 25 26  1  0
 26  2  1  0
 24  6  1  0
 22 13  1  0
 19 17  1  0
M  END
$$$$
