
     RDKit          3D

 31 35  0  0  0  0  0  0  0  0999 V2000
  -26.9749   45.5035  -14.6355 C   0  0  0  0  0  0  0  0  0  0  0  0
  -25.7524   44.7630  -14.9327 C   0  0  0  0  0  0  0  0  0  0  0  0
  -24.6259   44.9646  -14.1692 C   0  0  0  0  0  0  0  0  0  0  0  0
  -23.4446   44.3367  -14.3535 C   0  0  0  0  0  0  0  0  0  0  0  0
  -23.3215   43.3996  -15.3955 C   0  0  0  0  0  0  0  0  0  0  0  0
  -22.1399   42.7840  -15.5653 O   0  0  0  0  0  0  0  0  0  0  0  0
  -21.2812   42.9149  -16.6273 C   0  0  0  0  0  0  0  0  0  0  0  0
  -20.6829   41.9770  -17.3763 N   0  0  0  0  0  0  0  0  0  0  0  0
  -19.9112   42.5261  -18.3269 C   0  0  0  0  0  0  0  0  0  0  0  0
  -19.1021   42.0297  -19.3328 C   0  0  0  0  0  0  0  0  0  0  0  0
  -18.4143   42.8755  -20.1769 C   0  0  0  0  0  0  0  0  0  0  0  0
  -17.4001   42.2033  -21.4324 Cl  0  0  0  0  0  0  0  0  0  0  0  0
  -18.5046   44.2451  -20.0530 C   0  0  0  0  0  0  0  0  0  0  0  0
  -17.7712   45.1547  -20.9576 C   0  0  0  0  0  0  0  0  0  0  0  0
  -16.5573   45.7083  -20.5662 C   0  0  0  0  0  0  0  0  0  0  0  0
  -15.8428   46.5624  -21.3772 C   0  0  0  0  0  0  0  0  0  0  0  0
  -16.3345   46.8942  -22.6315 C   0  0  0  0  0  0  0  0  0  0  0  0
  -17.5329   46.3595  -23.0410 C   0  0  0  0  0  0  0  0  0  0  0  0
  -17.8044   46.8312  -24.3024 C   0  0  0  0  0  0  0  0  0  0  0  0
  -16.7497   47.6678  -24.6635 C   0  0  0  0  0  0  0  0  0  0  0  0
  -15.8877   47.6812  -23.6372 N   0  0  0  0  0  0  0  0  0  0  0  0
  -14.6519   48.4377  -23.6193 C   0  0  0  0  0  0  0  0  0  0  0  0
  -18.2357   45.5002  -22.2054 C   0  0  0  0  0  0  0  0  0  0  0  0
  -19.3107   44.7347  -19.0507 C   0  0  0  0  0  0  0  0  0  0  0  0
  -20.0132   43.8941  -18.1884 C   0  0  0  0  0  0  0  0  0  0  0  0
  -20.8435   44.1048  -17.1585 N   0  0  0  0  0  0  0  0  0  0  0  0
  -24.4194   43.1803  -16.1664 C   0  0  0  0  0  0  0  0  0  0  0  0
  -25.6348   43.8471  -15.9525 C   0  0  0  0  0  0  0  0  0  0  0  0
  -26.7893   43.5855  -16.7999 C   0  0  0  0  0  0  0  0  0  0  0  0
  -27.8890   44.1242  -16.5241 O   0  0  0  0  0  0  0  0  0  0  0  0
  -26.7440   42.7633  -17.9110 O   0  0  0  0  0  0  0  0  0  0  0  0
  1  2  1  0
  2  3  2  0
  3  4  1  0
  4  5  2  0
  5  6  1  0
  6  7  1  0
  7  8  2  0
  8  9  1  0
  9 10  2  0
 10 11  1  0
 11 12  1  0
 11 13  2  0
 13 14  1  0
 14 15  2  0
 15 16  1  0
 16 17  2  0
 17 18  1  0
 18 19  1  0
 19 20  2  0
 20 21  1  0
 21 22  1  0
 18 23  2  0
 13 24  1  0
 24 25  2  0
 25 26  1  0
  5 27  1  0
 27 28  2  0
 28 29  1  0
 29 30  2  0
 29 31  1  0
 28  2  1  0
 26  7  1  0
 25  9  1  0
 23 14  1  0
 21 17  1  0
M  END
$$$$
