
     RDKit          3D

 25 28  0  0  0  0  0  0  0  0999 V2000
  -22.6923   45.2560  -26.7490 C   0  0  0  0  0  0  0  0  0  0  0  0
  -21.7473   44.2698  -26.2764 N   0  0  0  0  0  0  0  0  0  0  0  0
  -21.3414   44.5191  -24.9223 C   0  0  0  0  0  0  0  0  0  0  0  0
  -20.0863   43.7020  -24.6533 C   0  0  0  0  0  0  0  0  0  0  0  0
  -20.3515   42.2563  -25.0099 C   0  0  0  0  0  0  0  0  0  0  0  0
  -20.0035   41.3891  -23.8350 C   0  0  0  0  0  0  0  0  0  0  0  0
  -20.2284   41.7190  -22.5135 C   0  0  0  0  0  0  0  0  0  0  0  0
  -19.7884   40.6918  -21.6913 C   0  0  0  0  0  0  0  0  0  0  0  0
  -19.8410   40.6394  -20.2358 C   0  0  0  0  0  0  0  0  0  0  0  0
  -20.9855   41.0270  -19.5732 C   0  0  0  0  0  0  0  0  0  0  0  0
  -21.0694   40.9892  -18.1809 C   0  0  0  0  0  0  0  0  0  0  0  0
  -20.0135   40.5662  -17.4657 N   0  0  0  0  0  0  0  0  0  0  0  0
  -18.8815   40.1819  -18.1016 C   0  0  0  0  0  0  0  0  0  0  0  0
  -18.7724   40.2097  -19.4796 C   0  0  0  0  0  0  0  0  0  0  0  0
  -19.2917   39.7345  -22.5696 C   0  0  0  0  0  0  0  0  0  0  0  0
  -18.7214   38.4720  -22.1148 C   0  0  0  0  0  0  0  0  0  0  0  0
  -17.4195   38.1594  -22.4567 C   0  0  0  0  0  0  0  0  0  0  0  0
  -16.8213   36.9690  -22.0510 C   0  0  0  0  0  0  0  0  0  0  0  0
  -17.5450   36.0813  -21.2904 C   0  0  0  0  0  0  0  0  0  0  0  0
  -16.9470   34.9165  -20.8984 F   0  0  0  0  0  0  0  0  0  0  0  0
  -18.8564   36.3648  -20.9294 C   0  0  0  0  0  0  0  0  0  0  0  0
  -19.4115   37.5539  -21.3511 C   0  0  0  0  0  0  0  0  0  0  0  0
  -19.4308   40.1735  -23.8468 N   0  0  0  0  0  0  0  0  0  0  0  0
  -21.8139   42.0125  -25.3255 C   0  0  0  0  0  0  0  0  0  0  0  0
  -22.1692   42.9154  -26.4880 C   0  0  0  0  0  0  0  0  0  0  0  0
  1  2  1  0
  2  3  1  0
  3  4  1  0
  4  5  1  0
  5  6  1  0
  6  7  2  0
  7  8  1  0
  8  9  1  0
  9 10  2  0
 10 11  1  0
 11 12  2  0
 12 13  1  0
 13 14  2  0
  8 15  2  0
 15 16  1  0
 16 17  2  0
 17 18  1  0
 18 19  2  0
 19 20  1  0
 19 21  1  0
 21 22  2  0
 15 23  1  0
  5 24  1  0
 24 25  1  0
 25  2  1  0
 23  6  1  0
 14  9  1  0
 22 16  1  0
M  END
$$$$
