
     RDKit          3D

  7  6  0  0  0  0  0  0  0  0999 V2000
  -19.9634   30.2694  -21.1625 N   0  0  0  0  0  0  0  0  0  0  0  0
  -20.0605   31.4993  -21.8667 C   0  0  0  0  0  0  0  0  0  0  0  0
  -18.9312   32.4470  -21.5923 C   0  0  0  0  0  0  0  0  0  0  0  0
  -19.3144   33.8611  -21.9217 C   0  0  0  0  0  0  0  0  0  0  0  0
  -18.1392   34.7840  -21.9237 C   0  0  0  0  0  0  0  0  0  0  0  0
  -18.5173   36.1877  -22.3645 C   0  0  0  0  0  0  0  0  0  0  0  0
  -17.6712   37.1440  -21.6975 N   0  0  0  0  0  0  0  0  0  0  0  0
  1  2  1  0
  2  3  1  0
  3  4  1  0
  4  5  1  0
  5  6  1  0
  6  7  1  0
M  END
$$$$
