
     RDKit          3D

 32 34  0  0  0  0  0  0  0  0999 V2000
  -16.2170   47.1754  -22.1508 C   0  0  0  0  0  0  0  0  0  0  0  0
  -15.6563   46.0044  -21.6330 O   0  0  0  0  0  0  0  0  0  0  0  0
  -15.3053   45.8744  -20.3123 C   0  0  0  0  0  0  0  0  0  0  0  0
  -14.6302   46.9089  -19.6929 C   0  0  0  0  0  0  0  0  0  0  0  0
  -14.2777   46.7911  -18.3855 C   0  0  0  0  0  0  0  0  0  0  0  0
  -14.5994   45.6281  -17.6789 C   0  0  0  0  0  0  0  0  0  0  0  0
  -15.2734   44.6174  -18.3303 C   0  0  0  0  0  0  0  0  0  0  0  0
  -15.5897   43.4660  -17.6234 O   0  0  0  0  0  0  0  0  0  0  0  0
  -15.2826   43.3290  -16.2492 C   0  0  0  0  0  0  0  0  0  0  0  0
  -15.6430   44.7104  -19.6552 C   0  0  0  0  0  0  0  0  0  0  0  0
  -16.3567   43.6642  -20.3807 C   0  0  0  0  0  0  0  0  0  0  0  0
  -17.7339   43.5455  -20.3220 C   0  0  0  0  0  0  0  0  0  0  0  0
  -18.4164   42.5594  -21.0047 C   0  0  0  0  0  0  0  0  0  0  0  0
  -17.7562   41.6336  -21.7874 C   0  0  0  0  0  0  0  0  0  0  0  0
  -18.5015   40.5789  -22.5164 C   0  0  0  0  0  0  0  0  0  0  0  0
  -18.5992   39.3024  -21.7111 C   0  0  2  0  0  0  0  0  0  0  0  0
  -19.4679   38.3393  -22.4275 N   0  0  0  0  0  0  0  0  0  0  0  0
  -19.4485   36.9831  -22.1114 C   0  0  0  0  0  0  0  0  0  0  0  0
  -18.6042   36.6484  -21.1997 O   0  0  0  0  0  0  0  0  0  0  0  0
  -20.2777   35.9718  -22.7198 C   0  0  0  0  0  0  0  0  0  0  0  0
  -21.6142   35.7611  -22.5084 C   0  0  0  0  0  0  0  0  0  0  0  0
  -22.4845   36.7012  -21.3267 Cl  0  0  0  0  0  0  0  0  0  0  0  0
  -22.2963   34.7596  -23.2129 C   0  0  0  0  0  0  0  0  0  0  0  0
  -21.6903   33.9437  -24.1353 C   0  0  0  0  0  0  0  0  0  0  0  0
  -20.3494   34.1478  -24.3521 C   0  0  0  0  0  0  0  0  0  0  0  0
  -19.6724   35.1255  -23.6686 C   0  0  0  0  0  0  0  0  0  0  0  0
  -17.9480   35.3658  -23.9719 Cl  0  0  0  0  0  0  0  0  0  0  0  0
  -19.1663   39.5221  -20.3569 C   0  0  0  0  0  0  0  0  0  0  0  0
  -18.4503   39.4333  -19.3198 O   0  0  0  0  0  0  0  0  0  0  0  0
  -20.5026   39.8326  -20.1879 O   0  0  0  0  0  0  0  0  0  0  0  0
  -16.3809   41.7495  -21.8482 C   0  0  0  0  0  0  0  0  0  0  0  0
  -15.6978   42.7355  -21.1655 C   0  0  0  0  0  0  0  0  0  0  0  0
  1  2  1  0
  2  3  1  0
  3  4  2  0
  4  5  1  0
  5  6  2  0
  6  7  1  0
  7  8  1  0
  8  9  1  0
  7 10  2  0
 10 11  1  0
 11 12  2  0
 12 13  1  0
 13 14  2  0
 14 15  1  0
 16 15  1  6
 16 17  1  0
 17 18  1  0
 18 19  2  0
 18 20  1  0
 20 21  2  0
 21 22  1  0
 21 23  1  0
 23 24  2  0
 24 25  1  0
 25 26  2  0
 26 27  1  0
 16 28  1  0
 28 29  2  0
 28 30  1  0
 14 31  1  0
 31 32  2  0
 10  3  1  0
 32 11  1  0
 26 20  1  0
M  END
$$$$
