
     RDKit          3D

 31 35  0  0  0  0  0  0  0  0999 V2000
  -22.8346   23.4905  -40.1453 C   0  0  0  0  0  0  0  0  0  0  0  0
  -22.6685   22.7935  -38.8432 C   0  0  0  0  0  0  0  0  0  0  0  0
  -21.5335   22.5095  -38.4003 O   0  0  0  0  0  0  0  0  0  0  0  0
  -23.7732   22.4432  -38.0911 O   0  0  0  0  0  0  0  0  0  0  0  0
  -23.7230   21.8972  -36.8393 C   0  0  0  0  0  0  0  0  0  0  0  0
  -24.0558   22.6724  -35.7482 C   0  0  0  0  0  0  0  0  0  0  0  0
  -24.0035   22.1194  -34.4958 C   0  0  0  0  0  0  0  0  0  0  0  0
  -23.6278   20.7948  -34.2439 C   0  0  0  0  0  0  0  0  0  0  0  0
  -23.3031   20.0401  -35.3147 C   0  0  0  0  0  0  0  0  0  0  0  0
  -23.3503   20.5900  -36.6124 C   0  0  0  0  0  0  0  0  0  0  0  0
  -22.9203   18.7220  -35.1618 O   0  0  0  0  0  0  0  0  0  0  0  0
  -22.8693   18.1681  -33.8925 C   0  0  0  0  0  0  0  0  0  0  0  0
  -22.4819   16.8394  -33.7554 C   0  0  0  0  0  0  0  0  0  0  0  0
  -22.3934   16.1824  -32.5565 C   0  0  0  0  0  0  0  0  0  0  0  0
  -21.9989   14.8531  -32.4961 O   0  0  0  0  0  0  0  0  0  0  0  0
  -20.7053   14.4483  -32.2850 C   0  0  0  0  0  0  0  0  0  0  0  0
  -20.2093   13.0662  -32.5009 C   0  0  0  0  0  0  0  0  0  0  0  0
  -19.8772   15.3038  -31.8802 O   0  0  0  0  0  0  0  0  0  0  0  0
  -22.7196   16.9243  -31.4282 C   0  0  0  0  0  0  0  0  0  0  0  0
  -23.1063   18.2405  -31.5313 C   0  0  0  0  0  0  0  0  0  0  0  0
  -23.1877   18.8860  -32.7699 C   0  0  0  0  0  0  0  0  0  0  0  0
  -23.6019   20.2906  -32.8640 C   0  0  0  0  0  0  0  0  0  0  0  0
  -24.9088   20.3809  -32.3036 O   0  0  0  0  0  0  0  0  0  0  0  0
  -24.9338   21.2081  -31.1989 C   0  0  0  0  0  0  0  0  0  0  0  0
  -25.9698   21.4474  -30.5326 O   0  0  0  0  0  0  0  0  0  0  0  0
  -23.5829   21.6898  -31.0159 C   0  0  0  0  0  0  0  0  0  0  0  0
  -23.0856   22.5488  -30.0452 C   0  0  0  0  0  0  0  0  0  0  0  0
  -21.7517   22.8834  -30.0513 C   0  0  0  0  0  0  0  0  0  0  0  0
  -20.9517   22.3487  -31.0295 C   0  0  0  0  0  0  0  0  0  0  0  0
  -21.4517   21.4935  -31.9944 C   0  0  0  0  0  0  0  0  0  0  0  0
  -22.7742   21.1684  -31.9795 C   0  0  0  0  0  0  0  0  0  0  0  0
  1  2  1  0
  2  3  2  0
  2  4  1  0
  4  5  1  0
  5  6  2  0
  6  7  1  0
  7  8  2  0
  8  9  1  0
  9 10  2  0
  9 11  1  0
 11 12  1  0
 12 13  2  0
 13 14  1  0
 14 15  1  0
 15 16  1  0
 16 17  1  0
 16 18  2  0
 14 19  2  0
 19 20  1  0
 20 21  2  0
 21 22  1  0
 22 23  1  0
 23 24  1  0
 24 25  2  0
 24 26  1  0
 26 27  2  0
 27 28  1  0
 28 29  2  0
 29 30  1  0
 30 31  2  0
 10  5  1  0
 21 12  1  0
 31 22  1  0
 22  8  1  0
 31 26  1  0
M  END
$$$$
