
     RDKit          3D

 26 28  0  0  0  0  0  0  0  0999 V2000
  -21.5825   43.3261  -22.8121 C   0  0  0  0  0  0  0  0  0  0  0  0
  -21.2670   43.6160  -21.4800 O   0  0  0  0  0  0  0  0  0  0  0  0
  -21.2148   44.9205  -21.0146 C   0  0  0  0  0  0  0  0  0  0  0  0
  -21.3492   45.9452  -21.9290 C   0  0  0  0  0  0  0  0  0  0  0  0
  -21.2905   47.2424  -21.4259 C   0  0  0  0  0  0  0  0  0  0  0  0
  -21.1077   47.4774  -20.0824 C   0  0  0  0  0  0  0  0  0  0  0  0
  -20.9754   46.4077  -19.1843 C   0  0  0  0  0  0  0  0  0  0  0  0
  -21.0299   45.1375  -19.6574 C   0  0  0  0  0  0  0  0  0  0  0  0
  -20.8590   44.0049  -18.7820 C   0  0  0  0  0  0  0  0  0  0  0  0
  -20.0978   42.9287  -19.1300 C   0  0  0  0  0  0  0  0  0  0  0  0
  -19.9628   41.8022  -18.3029 C   0  0  0  0  0  0  0  0  0  0  0  0
  -19.2037   40.7149  -18.7286 N   0  0  0  0  0  0  0  0  0  0  0  0
  -18.6093   40.5960  -20.0083 C   0  0  0  0  0  0  0  0  0  0  0  0
  -18.4725   41.6180  -20.9161 C   0  0  0  0  0  0  0  0  0  0  0  0
  -17.8527   41.4304  -22.1441 C   0  0  0  0  0  0  0  0  0  0  0  0
  -17.3633   40.1761  -22.4489 C   0  0  0  0  0  0  0  0  0  0  0  0
  -17.4675   39.1128  -21.5852 C   0  0  0  0  0  0  0  0  0  0  0  0
  -16.9410   37.7586  -21.8666 C   0  0  0  0  0  0  0  0  0  0  0  0
  -18.1246   36.6317  -22.5020 S   0  0  0  0  0  6  0  0  0  0  0  0
  -19.2498   36.2772  -21.2165 N   0  0  0  0  0  0  0  0  0  0  0  0
  -18.9014   37.1597  -23.6640 O   0  0  0  0  0  0  0  0  0  0  0  0
  -17.5094   35.3256  -22.9244 O   0  0  0  0  0  0  0  0  0  0  0  0
  -18.0893   39.3478  -20.3826 C   0  0  0  0  0  0  0  0  0  0  0  0
  -20.6330   41.8328  -17.1207 N   0  0  0  0  0  0  0  0  0  0  0  0
  -21.3829   42.8792  -16.7621 C   0  0  0  0  0  0  0  0  0  0  0  0
  -21.4982   43.9488  -17.5739 N   0  0  0  0  0  0  0  0  0  0  0  0
  1  2  1  0
  2  3  1  0
  3  4  2  0
  4  5  1  0
  5  6  2  0
  6  7  1  0
  7  8  2  0
  8  9  1  0
  9 10  2  0
 10 11  1  0
 11 12  1  0
 12 13  1  0
 13 14  2  0
 14 15  1  0
 15 16  2  0
 16 17  1  0
 17 18  1  0
 18 19  1  0
 19 20  1  0
 19 21  2  0
 19 22  2  0
 17 23  2  0
 11 24  2  0
 24 25  1  0
 25 26  2  0
  8  3  1  0
 26  9  1  0
 23 13  1  0
M  END
$$$$
