
     RDKit          3D

 27 30  0  0  0  0  0  0  0  0999 V2000
  -11.6940   43.7367  -20.4544 C   0  0  0  0  0  0  0  0  0  0  0  0
  -12.1995   44.0861  -19.0463 C   0  0  2  0  0  0  0  0  0  0  0  0
  -11.5762   43.2422  -18.0292 C   0  0  0  0  0  0  0  0  0  0  0  0
  -12.3136   42.9702  -16.8204 N   0  0  0  0  0  0  0  0  0  0  0  0
  -11.6409   42.6341  -15.6117 C   0  0  0  0  0  0  0  0  0  0  0  0
  -11.8649   41.4762  -14.8910 C   0  0  0  0  0  0  0  0  0  0  0  0
  -11.1710   41.1502  -13.7374 C   0  0  0  0  0  0  0  0  0  0  0  0
  -10.2224   42.0169  -13.2950 C   0  0  0  0  0  0  0  0  0  0  0  0
   -9.9745   43.1369  -13.9527 N   0  0  0  0  0  0  0  0  0  0  0  0
  -10.6661   43.4547  -15.0975 C   0  0  0  0  0  0  0  0  0  0  0  0
  -10.3341   44.6064  -15.7205 F   0  0  0  0  0  0  0  0  0  0  0  0
  -13.7252   43.0991  -16.9162 C   0  0  0  0  0  0  0  0  0  0  0  0
  -14.4632   42.6687  -15.9817 O   0  0  0  0  0  0  0  0  0  0  0  0
  -14.3632   43.7160  -18.0697 C   0  0  0  0  0  0  0  0  0  0  0  0
  -15.7147   43.9449  -18.3773 C   0  0  0  0  0  0  0  0  0  0  0  0
  -15.7049   44.5580  -19.6024 C   0  0  0  0  0  0  0  0  0  0  0  0
  -16.8839   45.0006  -20.3559 C   0  0  0  0  0  0  0  0  0  0  0  0
  -18.0152   44.2114  -20.1622 O   0  0  0  0  0  0  0  0  0  0  0  0
  -18.1737   43.0806  -20.9513 C   0  0  0  0  0  0  0  0  0  0  0  0
  -19.2343   42.2034  -20.7789 C   0  0  0  0  0  0  0  0  0  0  0  0
  -19.3937   41.0798  -21.5613 C   0  0  0  0  0  0  0  0  0  0  0  0
  -18.4902   40.7847  -22.5576 C   0  0  0  0  0  0  0  0  0  0  0  0
  -18.6328   39.3753  -23.5870 Cl  0  0  0  0  0  0  0  0  0  0  0  0
  -17.4333   41.6814  -22.7109 C   0  0  0  0  0  0  0  0  0  0  0  0
  -17.3055   42.7700  -21.9308 N   0  0  0  0  0  0  0  0  0  0  0  0
  -14.4414   44.7005  -20.0265 N   0  0  0  0  0  0  0  0  0  0  0  0
  -13.6311   44.1773  -19.0714 N   0  0  0  0  0  0  0  0  0  0  0  0
  2  1  1  6
  2  3  1  0
  3  4  1  0
  4  5  1  0
  5  6  2  0
  6  7  1  0
  7  8  2  0
  8  9  1  0
  9 10  2  0
 10 11  1  0
  4 12  1  0
 12 13  2  0
 12 14  1  0
 14 15  2  0
 15 16  1  0
 16 17  1  0
 17 18  1  0
 18 19  1  0
 19 20  2  0
 20 21  1  0
 21 22  2  0
 22 23  1  0
 22 24  1  0
 24 25  2  0
 16 26  2  0
 26 27  1  0
 27  2  1  0
 10  5  1  0
 27 14  1  0
 25 19  1  0
M  END
$$$$
