
     RDKit          3D

 16 17  0  0  0  0  0  0  0  0999 V2000
  -37.3099   42.9936  -13.1494 Cl  0  0  0  0  0  0  0  0  0  0  0  0
  -38.0694   40.6180  -13.6748 N   0  0  0  0  0  0  0  0  0  0  0  0
  -37.7705   41.9425  -13.2245 C   0  0  0  0  0  0  0  0  0  0  0  0
  -38.0987   42.4249  -11.9986 C   0  0  0  0  0  0  0  0  0  0  0  0
  -37.7833   43.6969  -11.6351 C   0  0  0  0  0  0  0  0  0  0  0  0
  -37.1453   44.5066  -12.4663 N   0  0  0  0  0  0  0  0  0  0  0  0
  -36.7964   44.0867  -13.6870 C   0  0  0  0  0  0  0  0  0  0  0  0
  -36.1218   44.9548  -14.5553 C   0  0  0  0  0  0  0  0  0  0  0  0
  -35.7524   44.5469  -15.8155 C   0  0  0  0  0  0  0  0  0  0  0  0
  -36.0637   43.2667  -16.1964 C   0  0  0  0  0  0  0  0  0  0  0  0
  -36.7269   42.3963  -15.3578 C   0  0  0  0  0  0  0  0  0  0  0  0
  -37.0985   42.8043  -14.0920 C   0  0  0  0  0  0  0  0  0  0  0  0
  -38.1922   44.1419  -10.2486 C   0  0  0  0  0  0  0  0  0  0  0  0
  -37.7306   43.0300   -9.3233 C   0  0  0  0  0  0  0  0  0  0  0  0
  -38.3771   41.7265   -9.6168 C   0  0  0  0  0  0  0  0  0  0  0  0
  -38.8149   41.5463  -11.0406 C   0  0  0  0  0  0  0  0  0  0  0  0
  2  3  1  0
  3  4  2  0
  4  5  1  0
  5  6  2  0
  6  7  1  0
  7  8  2  0
  8  9  1  0
  9 10  2  0
 10 11  1  0
 11 12  2  0
  5 13  1  0
 13 14  1  0
 14 15  1  0
 15 16  1  0
 12  3  1  0
 16  4  1  0
 12  7  1  0
M  END
$$$$
