
     RDKit          3D

 27 29  0  0  0  0  0  0  0  0999 V2000
  -16.0136   40.8329  -22.6759 C   0  0  0  0  0  0  0  0  0  0  0  0
  -17.2526   40.2593  -22.3581 O   0  0  0  0  0  0  0  0  0  0  0  0
  -18.4353   40.9333  -22.5975 C   0  0  0  0  0  0  0  0  0  0  0  0
  -18.6966   41.4700  -23.8360 C   0  0  0  0  0  0  0  0  0  0  0  0
  -19.8853   42.1493  -24.0819 C   0  0  0  0  0  0  0  0  0  0  0  0
  -20.1492   42.7083  -25.3866 C   0  0  0  0  0  0  0  0  0  0  0  0
  -20.3481   43.1369  -26.4259 N   0  0  0  0  0  0  0  0  0  0  0  0
  -20.7960   42.2736  -23.0595 C   0  0  0  0  0  0  0  0  0  0  0  0
  -20.5015   41.7273  -21.8436 C   0  0  0  0  0  0  0  0  0  0  0  0
  -19.3514   41.0485  -21.5385 C   0  0  0  0  0  0  0  0  0  0  0  0
  -18.9747   40.2683  -20.0396 S   0  0  0  0  0  6  0  0  0  0  0  0
  -18.0287   39.0899  -20.2794 O   0  0  0  0  0  0  0  0  0  0  0  0
  -20.2388   39.6587  -19.4257 O   0  0  0  0  0  0  0  0  0  0  0  0
  -18.2801   41.3034  -18.8837 N   0  0  0  0  0  0  0  0  0  0  0  0
  -17.3904   42.3805  -19.0846 C   0  0  0  0  0  0  0  0  0  0  0  0
  -18.0157   43.5734  -19.5056 C   0  0  0  0  0  0  0  0  0  0  0  0
  -17.2797   44.7079  -19.7694 C   0  0  0  0  0  0  0  0  0  0  0  0
  -15.9100   44.7047  -19.6278 C   0  0  0  0  0  0  0  0  0  0  0  0
  -15.2720   43.5539  -19.2175 C   0  0  0  0  0  0  0  0  0  0  0  0
  -16.0363   42.4039  -18.9514 C   0  0  0  0  0  0  0  0  0  0  0  0
  -13.9086   43.5582  -19.0792 C   0  0  0  0  0  0  0  0  0  0  0  0
  -13.2150   44.7113  -19.3539 C   0  0  0  0  0  0  0  0  0  0  0  0
  -11.7444   44.7793  -19.2245 C   0  0  0  0  0  0  0  0  0  0  0  0
  -13.9118   45.8274  -19.7598 C   0  0  0  0  0  0  0  0  0  0  0  0
  -13.2633   46.8923  -20.0127 O   0  0  0  0  0  0  0  0  0  0  0  0
  -15.2372   45.8406  -19.8995 N   0  0  0  0  0  0  0  0  0  0  0  0
  -15.9113   47.0283  -20.3238 C   0  0  0  0  0  0  0  0  0  0  0  0
  1  2  1  0
  2  3  1  0
  3  4  2  0
  4  5  1  0
  5  6  1  0
  6  7  3  0
  5  8  2  0
  8  9  1  0
  9 10  2  0
 10 11  1  0
 11 12  2  0
 11 13  2  0
 11 14  1  0
 14 15  1  0
 15 16  2  0
 16 17  1  0
 17 18  2  0
 18 19  1  0
 19 20  2  0
 19 21  1  0
 21 22  2  0
 22 23  1  0
 22 24  1  0
 24 25  2  0
 24 26  1  0
 26 27  1  0
 10  3  1  0
 20 15  1  0
 26 18  1  0
M  END
$$$$
