
     RDKit          3D

 15 14  0  0  0  0  0  0  0  0999 V2000
  -13.4131   -0.5473  -33.7481 Cl  0  0  0  0  0  0  0  0  0  0  0  0
  -11.3926   -2.0605  -34.0377 N   0  0  0  0  0  0  0  0  0  0  0  0
  -12.5449   -1.9699  -34.6041 C   0  0  0  0  0  0  0  0  0  0  0  0
  -12.6510   -1.6550  -35.9856 N   0  0  0  0  0  0  0  0  0  0  0  0
  -13.7220   -2.1914  -33.8478 N   0  0  0  0  0  0  0  0  0  0  0  0
  -13.8000   -2.1153  -32.4856 N   0  0  0  0  0  0  0  0  0  0  0  0
  -14.0398   -1.1218  -31.7393 C   0  0  0  0  0  0  0  0  0  0  0  0
  -14.3000    0.2471  -32.2133 C   0  0  0  0  0  0  0  0  0  0  0  0
  -13.3716    1.2268  -31.9751 C   0  0  0  0  0  0  0  0  0  0  0  0
  -11.8848    0.8399  -31.0784 Cl  0  0  0  0  0  0  0  0  0  0  0  0
  -13.5742    2.5118  -32.4093 C   0  0  0  0  0  0  0  0  0  0  0  0
  -14.7225    2.8500  -33.1012 C   0  0  0  0  0  0  0  0  0  0  0  0
  -15.6537    1.8636  -33.3398 C   0  0  0  0  0  0  0  0  0  0  0  0
  -15.4474    0.5643  -32.8985 C   0  0  0  0  0  0  0  0  0  0  0  0
  -16.6782   -0.6660  -33.2245 Cl  0  0  0  0  0  0  0  0  0  0  0  0
  2  3  2  0
  3  4  1  0
  3  5  1  0
  5  6  1  0
  6  7  2  3
  7  8  1  0
  8  9  2  0
  9 10  1  0
  9 11  1  0
 11 12  2  0
 12 13  1  0
 13 14  2  0
 14 15  1  0
 14  8  1  0
M  END
$$$$
