
     RDKit          3D

 27 30  0  0  0  0  0  0  0  0999 V2000
  -25.5429   18.5762  -24.1459 C   0  0  0  0  0  0  0  0  0  0  0  0
  -26.1419   17.4618  -23.4476 C   0  0  0  0  0  0  0  0  0  0  0  0
  -27.9606   17.2958  -23.0688 S   0  0  0  0  0  0  0  0  0  0  0  0
  -27.7837   15.7594  -22.2650 C   0  0  0  0  0  0  0  0  0  0  0  0
  -26.4211   15.4359  -22.2963 C   0  0  0  0  0  0  0  0  0  0  0  0
  -25.6201   16.2965  -22.8984 C   0  0  0  0  0  0  0  0  0  0  0  0
  -24.1336   16.0210  -23.1853 C   0  0  0  0  0  0  0  0  0  0  0  0
  -25.9340   14.2161  -21.6028 C   0  0  0  0  0  0  0  0  0  0  0  0
  -24.7134   14.2451  -20.8385 C   0  0  0  0  0  0  0  0  0  0  0  0
  -23.8737   13.2021  -20.7402 C   0  0  0  0  0  0  0  0  0  0  0  0
  -22.7568   13.2432  -19.9531 C   0  0  0  0  0  0  0  0  0  0  0  0
  -22.4354   14.3785  -19.2132 C   0  0  0  0  0  0  0  0  0  0  0  0
  -21.0109   14.4544  -18.1980 Cl  0  0  0  0  0  0  0  0  0  0  0  0
  -23.3184   15.4451  -19.3333 C   0  0  0  0  0  0  0  0  0  0  0  0
  -24.4237   15.3885  -20.1182 C   0  0  0  0  0  0  0  0  0  0  0  0
  -26.5406   13.0504  -21.5964 N   0  0  0  0  0  0  0  0  0  0  0  0
  -27.8169   12.7152  -22.2550 C   0  0  1  0  0  0  0  0  0  0  0  0
  -28.1557   11.2874  -22.0780 C   0  0  0  0  0  0  0  0  0  0  0  0
  -27.0298   10.4480  -22.5564 C   0  0  0  0  0  0  0  0  0  0  0  0
  -26.9867    9.0330  -22.4420 N   0  0  0  0  0  0  0  0  0  0  0  0
  -26.0391   11.0033  -23.1027 O   0  0  0  0  0  0  0  0  0  0  0  0
  -28.9255   13.5980  -21.7569 C   0  0  0  0  0  0  0  0  0  0  0  0
  -30.0996   13.2945  -21.2473 N   0  0  0  0  0  0  0  0  0  0  0  0
  -30.7563   14.4401  -20.9727 N   0  0  0  0  0  0  0  0  0  0  0  0
  -29.9955   15.5020  -21.3092 C   0  0  0  0  0  0  0  0  0  0  0  0
  -30.2691   16.9581  -21.2131 C   0  0  0  0  0  0  0  0  0  0  0  0
  -28.8764   14.9547  -21.7871 N   0  0  0  0  0  0  0  0  0  0  0  0
  1  2  1  0
  2  3  1  0
  3  4  1  0
  4  5  2  0
  5  6  1  0
  6  7  1  0
  5  8  1  0
  8  9  1  0
  9 10  2  0
 10 11  1  0
 11 12  2  0
 12 13  1  0
 12 14  1  0
 14 15  2  0
  8 16  2  0
 16 17  1  0
 17 18  1  1
 18 19  1  0
 19 20  1  0
 19 21  2  0
 17 22  1  0
 22 23  2  0
 23 24  1  0
 24 25  2  0
 25 26  1  0
 25 27  1  0
  6  2  2  0
 15  9  1  0
 27 22  1  0
 27  4  1  0
M  END
$$$$
