
     RDKit          3D

 40 43  0  0  0  0  0  0  0  0999 V2000
  -20.9915   40.3480  -16.4723 C   0  0  0  0  0  0  0  0  0  0  0  0
  -20.0048   41.1496  -17.2713 C   0  0  0  0  0  0  0  0  0  0  0  0
  -20.1901   42.4959  -17.4976 C   0  0  0  0  0  0  0  0  0  0  0  0
  -19.2675   43.2066  -18.2352 C   0  0  0  0  0  0  0  0  0  0  0  0
  -19.5163   44.6469  -18.4470 C   0  0  0  0  0  0  0  0  0  0  0  0
  -18.1244   42.6261  -18.7816 C   0  0  0  0  0  0  0  0  0  0  0  0
  -17.0818   43.6254  -19.7179 S   0  0  0  0  0  6  0  0  0  0  0  0
  -17.2351   45.0695  -19.2171 O   0  0  0  0  0  0  0  0  0  0  0  0
  -15.6080   43.3194  -19.4001 O   0  0  0  0  0  0  0  0  0  0  0  0
  -17.3322   43.6668  -21.3796 N   0  0  0  0  0  0  0  0  0  0  0  0
  -18.6193   43.7435  -21.9253 C   0  0  0  0  0  0  0  0  0  0  0  0
  -19.0677   42.5535  -22.7026 C   0  0  0  0  0  0  0  0  0  0  0  0
  -18.7187   42.4148  -24.0158 C   0  0  0  0  0  0  0  0  0  0  0  0
  -19.1413   41.3086  -24.7706 C   0  0  0  0  0  0  0  0  0  0  0  0
  -19.9172   40.3502  -24.1800 C   0  0  0  0  0  0  0  0  0  0  0  0
  -20.3944   39.1706  -24.9042 C   0  0  0  0  0  0  0  0  0  0  0  0
  -20.1335   37.8876  -24.5035 C   0  0  0  0  0  0  0  0  0  0  0  0
  -20.6174   36.8246  -25.2327 C   0  0  0  0  0  0  0  0  0  0  0  0
  -21.3643   37.0310  -26.3658 C   0  0  0  0  0  0  0  0  0  0  0  0
  -21.6461   38.3060  -26.7981 C   0  0  0  0  0  0  0  0  0  0  0  0
  -22.6018   38.5751  -28.2441 S   0  0  0  0  0  6  0  0  0  0  0  0
  -24.1234   39.3482  -27.7263 C   0  0  0  0  0  0  0  0  0  0  0  0
  -22.9794   37.1991  -28.7730 O   0  0  0  0  0  0  0  0  0  0  0  0
  -21.8840   39.3748  -29.2653 O   0  0  0  0  0  0  0  0  0  0  0  0
  -21.1525   39.3575  -26.0542 C   0  0  0  0  0  0  0  0  0  0  0  0
  -20.2794   40.4729  -22.8543 C   0  0  0  0  0  0  0  0  0  0  0  0
  -19.8507   41.5816  -22.1146 C   0  0  0  0  0  0  0  0  0  0  0  0
  -16.3912   44.5225  -22.0346 C   0  0  0  0  0  0  0  0  0  0  0  0
  -14.9995   44.4379  -21.4796 C   0  0  0  0  0  0  0  0  0  0  0  0
  -13.9119   45.1846  -21.8611 C   0  0  0  0  0  0  0  0  0  0  0  0
  -12.8434   44.7808  -21.0928 C   0  0  0  0  0  0  0  0  0  0  0  0
  -13.3183   43.7914  -20.2602 C   0  0  0  0  0  0  0  0  0  0  0  0
  -12.4983   43.0616  -19.2491 C   0  0  0  0  0  0  0  0  0  0  0  0
  -12.8764   41.7264  -19.3382 F   0  0  0  0  0  0  0  0  0  0  0  0
  -12.7522   43.6038  -18.0240 F   0  0  0  0  0  0  0  0  0  0  0  0
  -11.1569   43.1196  -19.5628 F   0  0  0  0  0  0  0  0  0  0  0  0
  -14.5878   43.6308  -20.5296 O   0  0  0  0  0  0  0  0  0  0  0  0
  -17.9483   41.2820  -18.5512 C   0  0  0  0  0  0  0  0  0  0  0  0
  -16.7719   40.6067  -19.1212 C   0  0  0  0  0  0  0  0  0  0  0  0
  -18.8853   40.5564  -17.8006 C   0  0  0  0  0  0  0  0  0  0  0  0
  1  2  1  0
  2  3  2  0
  3  4  1  0
  4  5  1  0
  4  6  2  0
  6  7  1  0
  7  8  2  0
  7  9  2  0
  7 10  1  0
 10 11  1  0
 11 12  1  0
 12 13  2  0
 13 14  1  0
 14 15  2  0
 15 16  1  0
 16 17  2  0
 17 18  1  0
 18 19  2  0
 19 20  1  0
 20 21  1  0
 21 22  1  0
 21 23  2  0
 21 24  2  0
 20 25  2  0
 15 26  1  0
 26 27  2  0
 10 28  1  0
 28 29  1  0
 29 30  2  0
 30 31  1  0
 31 32  2  0
 32 33  1  0
 33 34  1  0
 33 35  1  0
 33 36  1  0
 32 37  1  0
  6 38  1  0
 38 39  1  0
 38 40  2  0
 40  2  1  0
 27 12  1  0
 37 29  1  0
 25 16  1  0
M  END
$$$$
