
     RDKit          3D

 20 18  0  0  0  0  0  0  0  0999 V2000
  -30.6735   13.5788  -20.6130 Br  0  0  0  0  0  0  0  0  0  0  0  0
  -30.6734   13.5790  -20.6131 Br  0  0  0  0  0  0  0  0  0  0  0  0
  -34.5164    8.6550  -18.6519 N   0  0  0  0  0  0  0  0  0  0  0  0
  -34.1702    8.6559  -17.4174 C   0  0  0  0  0  0  0  0  0  0  0  0
  -34.4771    7.4679  -16.6801 N   0  0  0  0  0  0  0  0  0  0  0  0
  -33.3700    9.9944  -16.5682 S   0  0  0  0  0  0  0  0  0  0  0  0
  -32.9446   11.3655  -17.6476 C   0  0  0  0  0  0  0  0  0  0  0  0
  -31.8664   10.9457  -18.5902 C   0  0  0  0  0  0  0  0  0  0  0  0
  -31.4623   12.0421  -19.5306 C   0  0  0  0  0  0  0  0  0  0  0  0
  -32.0871   12.2024  -20.7528 C   0  0  0  0  0  0  0  0  0  0  0  0
  -31.7331   13.2014  -21.6359 C   0  0  0  0  0  0  0  0  0  0  0  0
  -30.7249   14.0930  -21.3272 C   0  0  0  0  0  0  0  0  0  0  0  0
  -30.3108   15.1801  -22.2435 C   0  0  0  0  0  0  0  0  0  0  0  0
  -29.2105   14.7669  -23.1938 C   0  0  0  0  0  0  0  0  0  0  0  0
  -28.8387   16.2040  -24.2382 S   0  0  0  0  0  0  0  0  0  0  0  0
  -28.1323   17.4984  -23.2383 C   0  0  0  0  0  0  0  0  0  0  0  0
  -27.8063   18.6064  -23.7948 N   0  0  0  0  0  0  0  0  0  0  0  0
  -27.9011   17.3876  -21.8408 N   0  0  0  0  0  0  0  0  0  0  0  0
  -30.0941   13.9431  -20.1107 C   0  0  0  0  0  0  0  0  0  0  0  0
  -30.4560   12.9392  -19.2326 C   0  0  0  0  0  0  0  0  0  0  0  0
  3  4  2  0
  4  5  1  0
  4  6  1  0
  6  7  1  0
  7  8  1  0
  8  9  1  0
  9 10  2  0
 10 11  1  0
 11 12  2  0
 12 13  1  0
 13 14  1  0
 14 15  1  0
 15 16  1  0
 16 17  2  0
 16 18  1  0
 12 19  1  0
 19 20  2  0
 20  9  1  0
M  END
$$$$
