
     RDKit          3D

 19 20  0  0  0  0  0  0  0  0999 V2000
  -23.1280   37.1241  -20.6366 N   0  0  0  0  0  0  0  0  0  0  0  0
  -21.9540   36.3845  -20.9493 C   0  0  0  0  0  0  0  0  0  0  0  0
  -21.9915   35.1303  -21.1481 O   0  0  0  0  0  0  0  0  0  0  0  0
  -20.7299   37.0910  -21.0340 N   0  0  0  0  0  0  0  0  0  0  0  0
  -19.5550   36.4273  -21.5173 C   0  0  0  0  0  0  0  0  0  0  0  0
  -19.3847   34.6714  -21.8262 S   0  0  0  0  0  0  0  0  0  0  0  0
  -17.7047   34.7438  -22.3703 C   0  0  0  0  0  0  0  0  0  0  0  0
  -16.9042   33.5854  -22.8012 C   0  0  0  0  0  0  0  0  0  0  0  0
  -17.4199   32.3137  -22.6706 C   0  0  0  0  0  0  0  0  0  0  0  0
  -16.6863   31.2062  -23.0688 C   0  0  0  0  0  0  0  0  0  0  0  0
  -15.4250   31.3331  -23.6056 C   0  0  0  0  0  0  0  0  0  0  0  0
  -14.6915   30.2563  -24.0016 F   0  0  0  0  0  0  0  0  0  0  0  0
  -14.9120   32.6083  -23.7348 C   0  0  0  0  0  0  0  0  0  0  0  0
  -15.6493   33.7210  -23.3345 C   0  0  0  0  0  0  0  0  0  0  0  0
  -17.4037   36.0315  -22.2843 C   0  0  0  0  0  0  0  0  0  0  0  0
  -18.3151   36.9302  -21.8541 C   0  0  0  0  0  0  0  0  0  0  0  0
  -18.0757   38.3884  -21.7232 C   0  0  0  0  0  0  0  0  0  0  0  0
  -16.8506   38.9449  -22.1328 N   0  0  0  0  0  0  0  0  0  0  0  0
  -18.9554   39.1213  -21.2521 O   0  0  0  0  0  0  0  0  0  0  0  0
  1  2  1  0
  2  3  2  0
  2  4  1  0
  4  5  1  0
  5  6  1  0
  6  7  1  0
  7  8  1  0
  8  9  2  0
  9 10  1  0
 10 11  2  0
 11 12  1  0
 11 13  1  0
 13 14  2  0
  7 15  2  0
 15 16  1  0
 16 17  1  0
 17 18  1  0
 17 19  2  0
 16  5  2  0
 14  8  1  0
M  END
$$$$
