
     RDKit          3D

 12 13  0  0  0  0  0  0  0  0999 V2000
  -25.5370   17.7833  -21.9369 O   0  0  0  0  0  0  0  0  0  0  0  0
  -26.0494   16.8676  -22.6406 C   0  0  0  0  0  0  0  0  0  0  0  0
  -26.0459   15.6187  -22.2132 O   0  0  0  0  0  0  0  0  0  0  0  0
  -26.5716   14.6402  -22.9218 C   0  0  0  0  0  0  0  0  0  0  0  0
  -26.5338   13.3567  -22.4151 C   0  0  0  0  0  0  0  0  0  0  0  0
  -27.0896   12.3453  -23.1720 C   0  0  0  0  0  0  0  0  0  0  0  0
  -27.6778   12.5510  -24.4029 C   0  0  0  0  0  0  0  0  0  0  0  0
  -27.7024   13.8462  -24.8874 C   0  0  0  0  0  0  0  0  0  0  0  0
  -27.1562   14.8839  -24.1583 C   0  0  0  0  0  0  0  0  0  0  0  0
  -27.1755   16.1668  -24.6282 C   0  0  0  0  0  0  0  0  0  0  0  0
  -26.6194   17.1615  -23.8650 C   0  0  0  0  0  0  0  0  0  0  0  0
  -26.5999   18.4889  -24.2734 O   0  0  0  0  0  0  0  0  0  0  0  0
  1  2  2  0
  2  3  1  0
  3  4  1  0
  4  5  2  0
  5  6  1  0
  6  7  2  0
  7  8  1  0
  8  9  2  0
  9 10  1  0
 10 11  2  0
 11 12  1  0
 11  2  1  0
  9  4  1  0
M  END
$$$$
