
     RDKit          3D

 34 37  0  0  0  0  0  0  0  0999 V2000
   -1.8651   12.1070  -48.4781 O   0  0  0  0  0  0  0  0  0  0  0  0
   -1.5517   12.2593  -47.2763 C   0  0  0  0  0  0  0  0  0  0  0  0
   -1.5167   13.5180  -46.7481 O   0  0  0  0  0  0  0  0  0  0  0  0
   -1.2264   11.0632  -46.4642 C   0  0  0  0  0  0  0  0  0  0  0  0
   -0.6649   11.3977  -45.2401 O   0  0  0  0  0  0  0  0  0  0  0  0
   -1.3015   11.4138  -44.0073 C   0  0  0  0  0  0  0  0  0  0  0  0
   -2.4759   12.0523  -43.7476 C   0  0  0  0  0  0  0  0  0  0  0  0
   -3.0034   11.9917  -42.4749 C   0  0  0  0  0  0  0  0  0  0  0  0
   -2.3610   11.2983  -41.4720 C   0  0  0  0  0  0  0  0  0  0  0  0
   -1.1530   10.6323  -41.7091 C   0  0  0  0  0  0  0  0  0  0  0  0
   -0.5411    9.9075  -40.5960 C   0  0  0  0  0  0  0  0  0  0  0  0
   -0.3593    8.5290  -40.7019 N   0  0  0  0  0  0  0  0  0  0  0  0
    0.9601    8.0074  -40.7070 C   0  0  0  0  0  0  0  0  0  0  0  0
    1.7224    8.2083  -39.4497 C   0  0  0  0  0  0  0  0  0  0  0  0
    2.8891    7.5478  -39.1544 C   0  0  0  0  0  0  0  0  0  0  0  0
    3.5393    7.7953  -37.9730 C   0  0  0  0  0  0  0  0  0  0  0  0
    3.0599    8.6987  -37.0504 C   0  0  0  0  0  0  0  0  0  0  0  0
    3.7507    8.9382  -35.8354 N   0  0  0  0  0  0  0  0  0  0  0  0
    5.0205    8.5901  -35.5900 C   0  0  0  0  0  0  0  0  0  0  0  0
    5.3614    8.9778  -34.3117 C   0  0  0  0  0  0  0  0  0  0  0  0
    4.2317    9.5770  -33.8005 C   0  0  0  0  0  0  0  0  0  0  0  0
    3.3021    9.5245  -34.7546 N   0  0  0  0  0  0  0  0  0  0  0  0
    1.8809    9.3579  -37.3627 C   0  0  0  0  0  0  0  0  0  0  0  0
    1.2117    9.1244  -38.5439 C   0  0  0  0  0  0  0  0  0  0  0  0
   -1.6298    7.4624  -40.5544 S   0  0  0  0  0  6  0  0  0  0  0  0
   -1.1039    6.0679  -40.3347 O   0  0  0  0  0  0  0  0  0  0  0  0
   -2.3387    7.3970  -41.9101 O   0  0  0  0  0  0  0  0  0  0  0  0
   -2.7827    7.8802  -39.3262 C   0  0  0  0  0  0  0  0  0  0  0  0
   -4.1045    8.1044  -39.6387 C   0  0  0  0  0  0  0  0  0  0  0  0
   -5.0373    8.4175  -38.6565 C   0  0  0  0  0  0  0  0  0  0  0  0
   -4.6282    8.5047  -37.3437 C   0  0  0  0  0  0  0  0  0  0  0  0
   -3.3424    8.2853  -37.0497 N   0  0  0  0  0  0  0  0  0  0  0  0
   -2.4175    7.9773  -38.0042 C   0  0  0  0  0  0  0  0  0  0  0  0
   -0.6544   10.7101  -42.9812 C   0  0  0  0  0  0  0  0  0  0  0  0
  1  2  2  0
  2  3  1  0
  2  4  1  0
  4  5  1  0
  5  6  1  0
  6  7  2  0
  7  8  1  0
  8  9  2  0
  9 10  1  0
 10 11  1  0
 11 12  1  0
 12 13  1  0
 13 14  1  0
 14 15  2  0
 15 16  1  0
 16 17  2  0
 17 18  1  0
 18 19  1  0
 19 20  2  0
 20 21  1  0
 21 22  2  0
 17 23  1  0
 23 24  2  0
 12 25  1  0
 25 26  2  0
 25 27  2  0
 25 28  1  0
 28 29  2  0
 29 30  1  0
 30 31  2  0
 31 32  1  0
 32 33  2  0
 10 34  2  0
 34  6  1  0
 24 14  1  0
 33 28  1  0
 22 18  1  0
M  END
$$$$
