
     RDKit          3D

 58 63  0  0  0  0  0  0  0  0999 V2000
  -22.4064   44.8183  -22.5030 C   0  0  0  0  0  0  0  0  0  0  0  0
  -22.1063   43.4963  -21.8371 C   0  0  0  0  0  0  0  0  0  0  0  0
  -20.6106   43.1733  -21.9706 C   0  0  2  0  0  0  0  0  0  0  0  0
  -20.3938   41.7877  -22.1699 N   0  0  0  0  0  0  0  0  0  0  0  0
  -19.7335   41.3603  -23.3749 C   0  0  0  0  0  0  0  0  0  0  0  0
  -19.2531   42.2522  -24.1157 O   0  0  0  0  0  0  0  0  0  0  0  0
  -19.5956   39.9529  -23.7818 C   0  0  2  0  0  0  0  0  0  0  0  0
  -19.5527   38.9784  -22.6254 C   0  0  0  0  0  0  0  0  0  0  0  0
  -18.3511   39.7658  -24.5191 N   0  0  0  0  0  0  0  0  0  0  0  0
  -18.4572   40.4319  -25.7875 C   0  0  0  0  0  0  0  0  0  0  0  0
  -19.9138   43.7096  -20.8021 C   0  0  0  0  0  0  0  0  0  0  0  0
  -19.6955   42.8885  -19.8040 O   0  0  0  0  0  0  0  0  0  0  0  0
  -19.4345   45.0099  -20.5979 N   0  0  0  0  0  0  0  0  0  0  0  0
  -19.5648   46.1488  -21.4682 C   0  0  0  0  0  0  0  0  0  0  0  0
  -19.6134   47.3511  -20.5650 C   0  0  1  0  0  0  0  0  0  0  0  0
  -20.8949   47.9360  -20.5677 O   0  0  0  0  0  0  0  0  0  0  0  0
  -19.2525   46.8484  -19.1930 C   0  0  0  0  0  0  0  0  0  0  0  0
  -18.6676   45.5061  -19.4647 C   0  0  1  0  0  0  0  0  0  0  0  0
  -18.5951   44.5678  -18.2878 C   0  0  0  0  0  0  0  0  0  0  0  0
  -17.2166   43.9711  -18.2226 C   0  0  0  0  0  0  0  0  0  0  0  0
  -16.7934   42.7307  -18.5350 C   0  0  0  0  0  0  0  0  0  0  0  0
  -17.4474   41.6693  -19.2867 C   0  0  0  0  0  0  0  0  0  0  0  0
  -17.5795   40.3900  -18.7903 N   0  0  0  0  0  0  0  0  0  0  0  0
  -18.1454   39.5955  -19.7128 C   0  0  0  0  0  0  0  0  0  0  0  0
  -18.5051   38.2587  -19.7386 C   0  0  0  0  0  0  0  0  0  0  0  0
  -19.0909   37.6879  -20.8460 C   0  0  0  0  0  0  0  0  0  0  0  0
  -19.4581   36.3908  -20.9047 F   0  0  0  0  0  0  0  0  0  0  0  0
  -19.3309   38.4640  -21.9713 C   0  0  0  0  0  0  0  0  0  0  0  0
  -18.9847   39.7855  -21.9681 C   0  0  0  0  0  0  0  0  0  0  0  0
  -18.3986   40.3337  -20.8449 C   0  0  0  0  0  0  0  0  0  0  0  0
  -17.9394   41.6474  -20.5394 C   0  0  0  0  0  0  0  0  0  0  0  0
  -17.9476   42.6861  -21.6170 C   0  0  0  0  0  0  0  0  0  0  0  0
  -19.1640   43.5687  -21.5177 C   0  0  2  0  0  0  0  0  0  0  0  0
  -20.4110   43.0119  -22.1153 C   0  0  0  0  0  0  0  0  0  0  0  0
  -21.1674   44.3067  -22.5293 C   0  0  2  0  0  0  0  0  0  0  0  0
  -22.1897   44.0600  -23.3920 O   0  0  0  0  0  0  0  0  0  0  0  0
  -19.9669   45.0061  -23.2171 C   0  0  0  0  0  0  0  0  0  0  0  0
  -18.9472   44.8269  -22.1694 N   0  0  0  0  0  0  0  0  0  0  0  0
  -17.9697   45.7839  -21.8431 C   0  0  0  0  0  0  0  0  0  0  0  0
  -17.3164   45.6118  -20.7955 O   0  0  0  0  0  0  0  0  0  0  0  0
  -17.7366   46.9412  -22.6966 C   0  0  2  0  0  0  0  0  0  0  0  0
  -16.5850   46.6964  -23.6771 C   0  0  0  0  0  0  0  0  0  0  0  0
  -16.5833   47.6299  -24.8302 C   0  0  0  0  0  0  0  0  0  0  0  0
  -17.5193   48.2037  -22.0791 N   0  0  0  0  0  0  0  0  0  0  0  0
  -18.3519   49.3422  -22.0961 C   0  0  0  0  0  0  0  0  0  0  0  0
  -19.1867   49.5026  -22.9896 O   0  0  0  0  0  0  0  0  0  0  0  0
  -18.2062   50.3723  -20.9999 C   0  0  2  0  0  0  0  0  0  0  0  0
  -19.2045   51.4800  -21.2435 C   0  0  0  0  0  0  0  0  0  0  0  0
  -16.8997   50.9318  -20.9359 N   0  0  0  0  0  0  0  0  0  0  0  0
  -16.6089   51.6758  -22.1294 C   0  0  0  0  0  0  0  0  0  0  0  0
  -15.4748   42.6652  -18.1181 N   0  0  0  0  0  0  0  0  0  0  0  0
  -15.0954   43.8234  -17.5734 C   0  0  0  0  0  0  0  0  0  0  0  0
  -13.9048   44.2377  -17.0275 C   0  0  0  0  0  0  0  0  0  0  0  0
  -13.7866   45.5431  -16.5160 C   0  0  0  0  0  0  0  0  0  0  0  0
  -12.5896   45.8749  -15.9992 F   0  0  0  0  0  0  0  0  0  0  0  0
  -14.8601   46.3999  -16.5627 C   0  0  0  0  0  0  0  0  0  0  0  0
  -16.0486   45.9779  -17.1109 C   0  0  0  0  0  0  0  0  0  0  0  0
  -16.1727   44.6763  -17.6234 C   0  0  0  0  0  0  0  0  0  0  0  0
  1  2  1  0
  3  2  1  1
  3  4  1  0
  4  5  1  0
  5  6  2  0
  5  7  1  0
  7  8  1  1
  7  9  1  0
  9 10  1  0
  3 11  1  0
 11 12  2  0
 11 13  1  0
 13 14  1  0
 14 15  1  0
 15 16  1  1
 15 17  1  0
 17 18  1  0
 18 19  1  1
 19 20  1  0
 20 21  2  0
 21 22  1  0
 22 23  1  0
 23 24  1  0
 24 25  2  0
 25 26  1  0
 26 27  1  0
 26 28  2  0
 28 29  1  0
 29 30  2  0
 30 31  1  0
 31 32  1  0
 33 32  1  6
 33 34  1  0
 34 35  1  0
 35 36  1  6
 35 37  1  0
 37 38  1  0
 38 39  1  0
 39 40  2  0
 39 41  1  0
 41 42  1  1
 42 43  1  0
 41 44  1  0
 44 45  1  0
 45 46  2  0
 45 47  1  0
 47 48  1  6
 47 49  1  0
 49 50  1  0
 21 51  1  0
 51 52  1  0
 52 53  2  0
 53 54  1  0
 54 55  1  0
 54 56  2  0
 56 57  1  0
 57 58  2  0
 18 13  1  0
 58 20  1  0
 31 22  2  0
 38 33  1  0
 58 52  1  0
 30 24  1  0
M  END
$$$$
