
     RDKit          3D

 18 19  0  0  0  0  0  0  0  0999 V2000
  -15.6106   43.0011  -17.3856 C   0  0  0  0  0  0  0  0  0  0  0  0
  -16.3975   44.0268  -18.2128 C   0  0  0  0  0  0  0  0  0  0  0  0
  -16.8952   43.2839  -19.3899 C   0  0  0  0  0  0  0  0  0  0  0  0
  -17.5411   42.0587  -19.2390 C   0  0  0  0  0  0  0  0  0  0  0  0
  -17.9825   41.4063  -20.3284 N   0  0  0  0  0  0  0  0  0  0  0  0
  -18.6514   40.1350  -20.1570 C   0  0  1  0  0  0  0  0  0  0  0  0
  -20.1398   40.4167  -20.2971 C   0  0  0  0  0  0  0  0  0  0  0  0
  -20.4584   39.6242  -21.5550 C   0  0  2  0  0  0  0  0  0  0  0  0
  -21.7679   39.2084  -21.6217 O   0  0  0  0  0  0  0  0  0  0  0  0
  -19.4729   38.4700  -21.3724 C   0  0  1  0  0  0  0  0  0  0  0  0
  -19.3349   37.6357  -22.6117 C   0  0  0  0  0  0  0  0  0  0  0  0
  -18.4556   38.2867  -23.4688 O   0  0  0  0  0  0  0  0  0  0  0  0
  -18.3101   39.2013  -21.0977 O   0  0  0  0  0  0  0  0  0  0  0  0
  -17.8055   41.9240  -21.5441 C   0  0  0  0  0  0  0  0  0  0  0  0
  -18.2271   41.2938  -22.5398 O   0  0  0  0  0  0  0  0  0  0  0  0
  -17.1787   43.1202  -21.7365 N   0  0  0  0  0  0  0  0  0  0  0  0
  -16.7251   43.7971  -20.6577 C   0  0  0  0  0  0  0  0  0  0  0  0
  -16.1347   44.9096  -20.7476 O   0  0  0  0  0  0  0  0  0  0  0  0
  1  2  1  0
  2  3  1  0
  3  4  2  0
  4  5  1  0
  6  5  1  6
  6  7  1  0
  7  8  1  0
  8  9  1  1
  8 10  1  0
 10 11  1  6
 11 12  1  0
 10 13  1  0
  5 14  1  0
 14 15  2  0
 14 16  1  0
 16 17  1  0
 17 18  2  0
 17  3  1  0
 13  6  1  0
M  END
$$$$
