
     RDKit          3D

 16 17  0  0  0  0  0  0  0  0999 V2000
  -14.4782   -4.3189  -28.7716 C   0  0  0  0  0  0  0  0  0  0  0  0
  -15.7434   -4.4242  -28.0849 N   0  0  0  0  0  0  0  0  0  0  0  0
  -16.9511   -4.7801  -28.7509 C   0  0  0  0  0  0  0  0  0  0  0  0
  -15.7718   -4.1562  -26.6708 C   0  0  0  0  0  0  0  0  0  0  0  0
  -14.7317   -3.7777  -25.9049 N   0  0  0  0  0  0  0  0  0  0  0  0
  -15.1237   -3.6157  -24.6229 C   0  0  0  0  0  0  0  0  0  0  0  0
  -14.4858   -3.2483  -23.4557 C   0  0  0  0  0  0  0  0  0  0  0  0
  -12.6256   -2.8420  -23.4812 Br  0  0  0  0  0  0  0  0  0  0  0  0
  -15.2147   -3.1836  -22.2915 C   0  0  0  0  0  0  0  0  0  0  0  0
  -14.3415   -2.6767  -20.6737 Br  0  0  0  0  0  0  0  0  0  0  0  0
  -16.5568   -3.4677  -22.2269 C   0  0  0  0  0  0  0  0  0  0  0  0
  -17.5724   -3.3795  -20.6144 Br  0  0  0  0  0  0  0  0  0  0  0  0
  -17.1883   -3.8341  -23.3959 C   0  0  0  0  0  0  0  0  0  0  0  0
  -19.0525   -4.2467  -23.3988 Br  0  0  0  0  0  0  0  0  0  0  0  0
  -16.4704   -3.9076  -24.5933 C   0  0  0  0  0  0  0  0  0  0  0  0
  -16.8308   -4.2305  -25.8474 N   0  0  0  0  0  0  0  0  0  0  0  0
  1  2  1  0
  2  3  1  0
  2  4  1  0
  4  5  2  0
  5  6  1  0
  6  7  2  0
  7  8  1  0
  7  9  1  0
  9 10  1  0
  9 11  2  0
 11 12  1  0
 11 13  1  0
 13 14  1  0
 13 15  2  0
 15 16  1  0
 16  4  1  0
 15  6  1  0
M  END
$$$$
