
     RDKit          3D

 13 12  0  0  0  0  0  0  0  0999 V2000
  -29.1635   16.2017  -19.3401 C   0  0  0  0  0  0  0  0  0  0  0  0
  -29.2079   15.3204  -20.1539 C   0  0  0  0  0  0  0  0  0  0  0  0
  -29.2451   14.2300  -21.1530 C   0  0  0  0  0  0  0  0  0  0  0  0
  -30.2690   13.3298  -20.7731 N   0  0  0  0  0  0  0  0  0  0  0  0
  -30.4693   12.1852  -21.5783 C   0  0  0  0  0  0  0  0  0  0  0  0
  -30.6205   13.2582  -19.4061 C   0  0  0  0  0  0  0  0  0  0  0  0
  -31.7008   12.2842  -19.1152 C   0  0  0  0  0  0  0  0  0  0  0  0
  -31.3972   10.9973  -18.7992 C   0  0  0  0  0  0  0  0  0  0  0  0
  -32.3784   10.0706  -18.5241 C   0  0  0  0  0  0  0  0  0  0  0  0
  -33.7298   10.4096  -18.5568 C   0  0  0  0  0  0  0  0  0  0  0  0
  -34.0390   11.7105  -18.8764 C   0  0  0  0  0  0  0  0  0  0  0  0
  -33.0558   12.6282  -19.1493 C   0  0  0  0  0  0  0  0  0  0  0  0
  -30.7562   13.1764  -19.8355 Cl  0  0  0  0  0  0  0  0  0  0  0  0
  1  2  3  0
  2  3  1  0
  3  4  1  0
  4  5  1  0
  4  6  1  0
  6  7  1  0
  7  8  2  0
  8  9  1  0
  9 10  2  0
 10 11  1  0
 11 12  2  0
 12  7  1  0
M  END
$$$$
