
     RDKit          3D

 31 33  0  0  0  0  0  0  0  0999 V2000
  -22.8274   36.8802  -24.8508 C   0  0  0  0  0  0  0  0  0  0  0  0
  -21.5470   36.0945  -24.9321 C   0  0  0  0  0  0  0  0  0  0  0  0
  -21.0854   35.6789  -23.6312 N   0  0  0  0  0  0  0  0  0  0  0  0
  -20.2161   36.4955  -22.8582 C   0  0  0  0  0  0  0  0  0  0  0  0
  -19.8408   37.7185  -23.2688 N   0  0  0  0  0  0  0  0  0  0  0  0
  -19.0192   38.5106  -22.5711 C   0  0  0  0  0  0  0  0  0  0  0  0
  -18.6860   39.7965  -23.0466 N   0  0  0  0  0  0  0  0  0  0  0  0
  -18.5407   40.9654  -22.2860 C   0  0  0  0  0  0  0  0  0  0  0  0
  -18.1446   40.9829  -20.9722 C   0  0  0  0  0  0  0  0  0  0  0  0
  -17.9701   42.1913  -20.2869 C   0  0  0  0  0  0  0  0  0  0  0  0
  -17.5726   42.1969  -18.9721 F   0  0  0  0  0  0  0  0  0  0  0  0
  -18.1857   43.3928  -20.8929 C   0  0  0  0  0  0  0  0  0  0  0  0
  -17.9959   44.6741  -20.2346 C   0  0  0  0  0  0  0  0  0  0  0  0
  -18.9831   45.1782  -19.6272 O   0  0  0  0  0  0  0  0  0  0  0  0
  -16.7282   45.3512  -20.2619 N   0  0  0  0  0  0  0  0  0  0  0  0
  -16.7144   46.6970  -19.7123 C   0  0  0  0  0  0  0  0  0  0  0  0
  -15.3760   47.0686  -19.1456 C   0  0  0  0  0  0  0  0  0  0  0  0
  -14.4743   46.0044  -19.1980 O   0  0  0  0  0  0  0  0  0  0  0  0
  -14.3325   45.5158  -20.4863 C   0  0  0  0  0  0  0  0  0  0  0  0
  -15.5891   44.6836  -20.7830 C   0  0  0  0  0  0  0  0  0  0  0  0
  -18.5977   43.3846  -22.2422 C   0  0  0  0  0  0  0  0  0  0  0  0
  -18.7622   42.2062  -22.8908 C   0  0  0  0  0  0  0  0  0  0  0  0
  -19.1682   42.2061  -24.2103 O   0  0  0  0  0  0  0  0  0  0  0  0
  -20.3416   42.7868  -24.6775 C   0  0  0  0  0  0  0  0  0  0  0  0
  -18.5310   38.0661  -21.3826 N   0  0  0  0  0  0  0  0  0  0  0  0
  -18.8661   36.8663  -20.9252 C   0  0  0  0  0  0  0  0  0  0  0  0
  -19.7127   36.0546  -21.6459 C   0  0  0  0  0  0  0  0  0  0  0  0
  -20.1208   34.7031  -21.1700 C   0  0  0  0  0  0  0  0  0  0  0  0
  -19.5619   33.6777  -21.8884 F   0  0  0  0  0  0  0  0  0  0  0  0
  -19.8773   34.5190  -19.8293 F   0  0  0  0  0  0  0  0  0  0  0  0
  -21.5155   34.6105  -21.3456 F   0  0  0  0  0  0  0  0  0  0  0  0
  1  2  1  0
  2  3  1  0
  3  4  1  0
  4  5  2  0
  5  6  1  0
  6  7  1  0
  7  8  1  0
  8  9  2  0
  9 10  1  0
 10 11  1  0
 10 12  2  0
 12 13  1  0
 13 14  2  0
 13 15  1  0
 15 16  1  0
 16 17  1  0
 17 18  1  0
 18 19  1  0
 19 20  1  0
 12 21  1  0
 21 22  2  0
 22 23  1  0
 23 24  1  0
  6 25  2  0
 25 26  1  0
 26 27  2  0
 27 28  1  0
 28 29  1  0
 28 30  1  0
 28 31  1  0
 27  4  1  0
 22  8  1  0
 20 15  1  0
M  END
$$$$
