
     RDKit          3D

 42 46  0  0  0  0  0  0  0  0999 V2000
  -11.3169   41.9034  -20.1696 C   0  0  0  0  0  0  0  0  0  0  0  0
  -12.2270   43.0873  -20.0436 C   0  0  0  0  0  0  0  0  0  0  0  0
  -11.9150   43.8296  -18.7247 C   0  0  0  0  0  0  0  0  0  0  0  0
  -12.7221   43.1890  -17.6641 C   0  0  0  0  0  0  0  0  0  0  0  0
  -12.0976   42.3237  -16.7633 C   0  0  0  0  0  0  0  0  0  0  0  0
  -12.7733   41.7997  -15.6860 C   0  0  0  0  0  0  0  0  0  0  0  0
  -12.0637   40.8848  -14.7594 C   0  0  0  0  0  0  0  0  0  0  0  0
  -14.0555   42.1362  -15.5135 N   0  0  0  0  0  0  0  0  0  0  0  0
  -14.6811   42.9517  -16.3501 C   0  0  0  0  0  0  0  0  0  0  0  0
  -15.8858   43.2185  -16.1220 O   0  0  0  0  0  0  0  0  0  0  0  0
  -14.0302   43.5061  -17.4592 C   0  0  0  0  0  0  0  0  0  0  0  0
  -14.8860   44.2857  -18.3811 C   0  0  0  0  0  0  0  0  0  0  0  0
  -15.9141   43.4599  -18.9421 N   0  0  0  0  0  0  0  0  0  0  0  0
  -16.1212   43.1344  -20.2708 C   0  0  0  0  0  0  0  0  0  0  0  0
  -15.1849   43.0472  -21.0837 O   0  0  0  0  0  0  0  0  0  0  0  0
  -17.4871   42.8662  -20.8132 C   0  0  0  0  0  0  0  0  0  0  0  0
  -18.5528   43.4957  -20.2186 C   0  0  0  0  0  0  0  0  0  0  0  0
  -19.8685   43.2961  -20.6687 C   0  0  0  0  0  0  0  0  0  0  0  0
  -20.9796   43.9700  -20.0129 C   0  0  0  0  0  0  0  0  0  0  0  0
  -20.8676   44.4865  -18.7479 C   0  0  0  0  0  0  0  0  0  0  0  0
  -21.9842   45.1134  -18.1985 C   0  0  0  0  0  0  0  0  0  0  0  0
  -23.1709   45.2124  -18.9081 C   0  0  0  0  0  0  0  0  0  0  0  0
  -24.3127   45.8539  -18.3367 N   0  0  0  0  0  0  0  0  0  0  0  0
  -24.2552   46.2697  -16.9675 C   0  0  0  0  0  0  0  0  0  0  0  0
  -25.4497   45.7483  -16.1552 C   0  0  0  0  0  0  0  0  0  0  0  0
  -26.6232   45.7675  -16.9345 N   0  0  0  0  0  0  0  0  0  0  0  0
  -27.7830   45.1488  -16.4679 C   0  0  0  0  0  0  0  0  0  0  0  0
  -27.9498   45.1218  -14.9674 C   0  0  0  0  0  0  0  0  0  0  0  0
  -29.0555   45.7551  -17.0381 C   0  0  0  0  0  0  0  0  0  0  0  0
  -26.6230   46.4895  -18.1422 C   0  0  0  0  0  0  0  0  0  0  0  0
  -25.5187   46.0965  -19.0958 C   0  0  0  0  0  0  0  0  0  0  0  0
  -23.2504   44.6976  -20.1463 N   0  0  0  0  0  0  0  0  0  0  0  0
  -22.1751   44.0898  -20.6852 C   0  0  0  0  0  0  0  0  0  0  0  0
  -20.0402   42.4413  -21.7318 C   0  0  0  0  0  0  0  0  0  0  0  0
  -18.9496   41.8163  -22.3162 C   0  0  0  0  0  0  0  0  0  0  0  0
  -17.6533   42.0131  -21.8722 C   0  0  0  0  0  0  0  0  0  0  0  0
  -16.8045   41.2508  -22.6589 C   0  0  0  0  0  0  0  0  0  0  0  0
  -17.5908   40.6180  -23.5510 N   0  0  0  0  0  0  0  0  0  0  0  0
  -18.8505   40.9538  -23.3452 N   0  0  0  0  0  0  0  0  0  0  0  0
  -20.0257   40.4906  -24.0909 C   0  0  0  0  0  0  0  0  0  0  0  0
  -20.5385   41.6000  -24.9792 C   0  0  0  0  0  0  0  0  0  0  0  0
  -21.0738   40.0537  -23.0928 C   0  0  0  0  0  0  0  0  0  0  0  0
  1  2  1  0
  2  3  1  0
  3  4  1  0
  4  5  1  0
  5  6  2  0
  6  7  1  0
  6  8  1  0
  8  9  1  0
  9 10  2  0
  9 11  1  0
 11 12  1  0
 12 13  1  0
 13 14  1  0
 14 15  2  0
 14 16  1  0
 16 17  2  0
 17 18  1  0
 18 19  1  0
 19 20  2  0
 20 21  1  0
 21 22  2  0
 22 23  1  0
 23 24  1  0
 24 25  1  0
 25 26  1  0
 26 27  1  0
 27 28  1  0
 27 29  1  0
 26 30  1  0
 30 31  1  0
 22 32  1  0
 32 33  2  0
 18 34  2  0
 34 35  1  0
 35 36  2  0
 36 37  1  0
 37 38  2  0
 38 39  1  0
 39 40  1  0
 40 41  1  0
 40 42  1  0
 11  4  2  0
 36 16  1  0
 33 19  1  0
 39 35  1  0
 31 23  1  0
M  END
$$$$
