
     RDKit          3D

 16 17  0  0  0  0  0  0  0  0999 V2000
  -16.1277   18.0418  -39.7136 C   0  0  0  0  0  0  0  0  0  0  0  0
  -15.0775   17.2059  -39.3629 O   0  0  0  0  0  0  0  0  0  0  0  0
  -13.7952   17.4386  -39.8023 C   0  0  0  0  0  0  0  0  0  0  0  0
  -12.6988   16.9806  -39.1063 C   0  0  0  0  0  0  0  0  0  0  0  0
  -11.4488   17.2588  -39.6176 C   0  0  0  0  0  0  0  0  0  0  0  0
  -11.2707   17.9695  -40.7831 C   0  0  0  0  0  0  0  0  0  0  0  0
  -12.3706   18.4456  -41.5092 C   0  0  0  0  0  0  0  0  0  0  0  0
  -12.1642   19.1780  -42.7376 C   0  0  0  0  0  0  0  0  0  0  0  0
  -10.9591   19.5234  -43.0977 C   0  0  0  0  0  0  0  0  0  0  0  0
   -9.4719   18.9157  -42.3199 S   0  0  0  0  0  0  0  0  0  0  0  0
   -8.3418   19.4859  -43.5895 C   0  0  0  0  0  0  0  0  0  0  0  0
   -7.1302   19.1590  -43.7424 O   0  0  0  0  0  0  0  0  0  0  0  0
   -9.1106   20.3801  -44.3791 N   0  0  0  0  0  0  0  0  0  0  0  0
  -10.4720   20.4094  -44.1328 C   0  0  0  0  0  0  0  0  0  0  0  0
  -11.2829   21.1701  -44.7719 O   0  0  0  0  0  0  0  0  0  0  0  0
  -13.6055   18.1613  -40.9897 C   0  0  0  0  0  0  0  0  0  0  0  0
  1  2  1  0
  2  3  1  0
  3  4  2  0
  4  5  1  0
  5  6  2  0
  6  7  1  0
  7  8  1  0
  8  9  2  0
  9 10  1  0
 10 11  1  0
 11 12  2  0
 11 13  1  0
 13 14  1  0
 14 15  2  0
  7 16  2  0
 16  3  1  0
 14  9  1  0
M  END
$$$$
