
     RDKit          3D

 29 31  0  0  0  0  0  0  0  0999 V2000
  -12.8055   -5.2991  -35.3896 C   0  0  0  0  0  0  0  0  0  0  0  0
  -13.9170   -4.6331  -35.9494 O   0  0  0  0  0  0  0  0  0  0  0  0
  -14.4573   -3.5483  -35.3229 C   0  0  0  0  0  0  0  0  0  0  0  0
  -13.6099   -2.5387  -34.8806 C   0  0  0  0  0  0  0  0  0  0  0  0
  -14.1266   -1.4591  -34.2621 C   0  0  0  0  0  0  0  0  0  0  0  0
  -15.5182   -1.3797  -34.0799 C   0  0  0  0  0  0  0  0  0  0  0  0
  -16.3808   -2.3421  -34.4889 C   0  0  0  0  0  0  0  0  0  0  0  0
  -17.7312   -2.2455  -34.2734 O   0  0  0  0  0  0  0  0  0  0  0  0
  -18.6028   -1.5626  -35.1714 C   0  0  0  0  0  0  0  0  0  0  0  0
  -15.8409   -3.4387  -35.1209 C   0  0  0  0  0  0  0  0  0  0  0  0
  -16.6745   -4.4285  -35.5542 O   0  0  0  0  0  0  0  0  0  0  0  0
  -16.8225   -4.9210  -36.8481 C   0  0  0  0  0  0  0  0  0  0  0  0
  -16.2403   -0.2441  -33.5218 C   0  0  0  0  0  0  0  0  0  0  0  0
  -17.3597   -0.2225  -34.3262 C   0  0  0  0  0  0  0  0  0  0  0  0
  -18.5560    0.3635  -34.0036 C   0  0  0  0  0  0  0  0  0  0  0  0
  -18.8724    1.1568  -32.8852 C   0  0  0  0  0  0  0  0  0  0  0  0
  -20.1572    1.6741  -32.8192 O   0  0  0  0  0  0  0  0  0  0  0  0
  -20.8525    2.1482  -33.9510 C   0  0  0  0  0  0  0  0  0  0  0  0
  -18.0565    1.4935  -31.8261 C   0  0  0  0  0  0  0  0  0  0  0  0
  -18.6238    2.0595  -30.8548 O   0  0  0  0  0  0  0  0  0  0  0  0
  -16.6885    1.3028  -31.6620 C   0  0  0  0  0  0  0  0  0  0  0  0
  -15.8395    0.5960  -32.4793 C   0  0  0  0  0  0  0  0  0  0  0  0
  -14.4537    0.9226  -32.0521 C   0  0  1  0  0  0  0  0  0  0  0  0
  -14.4025    1.4901  -30.7398 N   0  0  0  0  0  0  0  0  0  0  0  0
  -13.4750    2.5112  -30.4105 C   0  0  0  0  0  0  0  0  0  0  0  0
  -12.9361    2.7057  -29.0347 C   0  0  0  0  0  0  0  0  0  0  0  0
  -13.1010    3.2778  -31.3318 O   0  0  0  0  0  0  0  0  0  0  0  0
  -13.4583   -0.1688  -32.2698 C   0  0  0  0  0  0  0  0  0  0  0  0
  -13.1553   -0.4306  -33.7591 C   0  0  0  0  0  0  0  0  0  0  0  0
  1  2  1  0
  2  3  1  0
  3  4  2  0
  4  5  1  0
  5  6  2  0
  6  7  1  0
  7  8  1  0
  8  9  1  0
  7 10  2  0
 10 11  1  0
 11 12  1  0
  6 13  1  0
 13 14  2  0
 14 15  1  0
 15 16  2  0
 16 17  1  0
 17 18  1  0
 16 19  1  0
 19 20  2  0
 19 21  1  0
 21 22  2  0
 22 23  1  0
 23 24  1  1
 24 25  1  0
 25 26  1  0
 25 27  2  0
 23 28  1  0
 28 29  1  0
 10  3  1  0
 22 13  1  0
 29  5  1  0
M  END
$$$$
