
     RDKit          3D

 22 23  0  0  0  0  0  0  0  0999 V2000
  -20.9511   17.4487  -30.6990 C   0  0  0  0  0  0  0  0  0  0  0  0
  -20.5977   16.0521  -30.3428 C   0  0  2  0  0  0  0  0  0  0  0  0
  -19.5905   15.9587  -29.3007 N   0  0  0  0  0  0  0  0  0  0  0  0
  -18.2285   16.1271  -29.4970 C   0  0  0  0  0  0  0  0  0  0  0  0
  -17.8294   16.3199  -30.6903 O   0  0  0  0  0  0  0  0  0  0  0  0
  -17.2231   16.1023  -28.4615 C   0  0  0  0  0  0  0  0  0  0  0  0
  -16.6664   14.8071  -28.1386 N   0  0  0  0  0  0  0  0  0  0  0  0
  -16.0319   14.0028  -29.1493 C   0  0  0  0  0  0  0  0  0  0  0  0
  -16.7620   13.7188  -30.1389 O   0  0  0  0  0  0  0  0  0  0  0  0
  -14.6596   13.5463  -29.0512 C   0  0  0  0  0  0  0  0  0  0  0  0
  -14.1626   12.7724  -30.0774 C   0  0  0  0  0  0  0  0  0  0  0  0
  -12.8672   12.2903  -30.0742 C   0  0  0  0  0  0  0  0  0  0  0  0
  -12.0304   12.5845  -29.0158 C   0  0  0  0  0  0  0  0  0  0  0  0
  -12.4981   13.3543  -27.9774 C   0  0  0  0  0  0  0  0  0  0  0  0
  -11.4370   13.7266  -26.6364 Cl  0  0  0  0  0  0  0  0  0  0  0  0
  -13.8134   13.8250  -28.0135 C   0  0  0  0  0  0  0  0  0  0  0  0
  -20.1143   15.2740  -31.5087 C   0  0  0  0  0  0  0  0  0  0  0  0
  -20.0920   13.8991  -31.4695 C   0  0  0  0  0  0  0  0  0  0  0  0
  -19.6423   13.1427  -32.5521 C   0  0  0  0  0  0  0  0  0  0  0  0
  -19.2028   13.7731  -33.7050 C   0  0  0  0  0  0  0  0  0  0  0  0
  -19.2272   15.1464  -33.7386 C   0  0  0  0  0  0  0  0  0  0  0  0
  -19.6733   15.8869  -32.6641 C   0  0  0  0  0  0  0  0  0  0  0  0
  2  1  1  6
  2  3  1  0
  3  4  1  0
  4  5  2  0
  4  6  1  0
  6  7  1  0
  7  8  1  0
  8  9  2  0
  8 10  1  0
 10 11  2  0
 11 12  1  0
 12 13  2  0
 13 14  1  0
 14 15  1  0
 14 16  2  0
  2 17  1  0
 17 18  2  0
 18 19  1  0
 19 20  2  0
 20 21  1  0
 21 22  2  0
 16 10  1  0
 22 17  1  0
M  END
$$$$
