
     RDKit          3D

 34 37  0  0  0  0  0  0  0  0999 V2000
  -24.3242   28.6272  -25.4550 C   0  0  0  0  0  0  0  0  0  0  0  0
  -25.0045   27.7187  -26.2886 O   0  0  0  0  0  0  0  0  0  0  0  0
  -24.3992   26.5054  -26.6466 C   0  0  0  0  0  0  0  0  0  0  0  0
  -23.1091   26.3012  -26.2987 N   0  0  0  0  0  0  0  0  0  0  0  0
  -22.4333   25.1794  -26.5900 C   0  0  0  0  0  0  0  0  0  0  0  0
  -23.0813   24.1649  -27.2858 C   0  0  0  0  0  0  0  0  0  0  0  0
  -22.4317   22.9968  -27.6068 C   0  0  0  0  0  0  0  0  0  0  0  0
  -23.0969   22.0123  -28.2936 C   0  0  0  0  0  0  0  0  0  0  0  0
  -22.4886   20.7506  -28.6718 C   0  0  0  0  0  0  0  0  0  0  0  0
  -21.3926   20.4304  -28.1499 O   0  0  0  0  0  0  0  0  0  0  0  0
  -23.0387   19.8388  -29.5945 N   0  0  0  0  0  0  0  0  0  0  0  0
  -22.4571   18.5926  -29.9654 C   0  0  0  0  0  0  0  0  0  0  0  0
  -21.0946   18.4834  -30.2195 C   0  0  0  0  0  0  0  0  0  0  0  0
  -20.4789   17.3225  -30.5752 C   0  0  0  0  0  0  0  0  0  0  0  0
  -19.0507   17.1743  -30.8504 C   0  0  0  0  0  0  0  0  0  0  0  0
  -18.2840   18.1830  -30.7510 O   0  0  0  0  0  0  0  0  0  0  0  0
  -18.4648   15.9601  -31.2250 N   0  0  0  0  0  0  0  0  0  0  0  0
  -18.0203   14.9257  -30.3094 C   0  0  0  0  0  0  0  0  0  0  0  0
  -16.5898   14.9535  -30.0048 C   0  0  0  0  0  0  0  0  0  0  0  0
  -15.8375   13.8077  -30.2067 C   0  0  0  0  0  0  0  0  0  0  0  0
  -14.4833   13.7683  -29.9463 C   0  0  0  0  0  0  0  0  0  0  0  0
  -13.8519   14.8982  -29.4709 C   0  0  0  0  0  0  0  0  0  0  0  0
  -14.5656   16.0498  -29.2598 C   0  0  0  0  0  0  0  0  0  0  0  0
  -13.7371   17.4673  -28.6555 Cl  0  0  0  0  0  0  0  0  0  0  0  0
  -15.9212   16.0539  -29.5314 C   0  0  0  0  0  0  0  0  0  0  0  0
  -21.2988   16.1940  -30.6812 C   0  0  0  0  0  0  0  0  0  0  0  0
  -22.6556   16.2328  -30.4432 C   0  0  0  0  0  0  0  0  0  0  0  0
  -23.2099   17.4435  -30.0871 C   0  0  0  0  0  0  0  0  0  0  0  0
  -24.9348   17.5584  -29.7691 Cl  0  0  0  0  0  0  0  0  0  0  0  0
  -24.4105   22.2641  -28.6272 C   0  0  0  0  0  0  0  0  0  0  0  0
  -25.1591   21.3221  -29.3229 O   0  0  0  0  0  0  0  0  0  0  0  0
  -25.0339   23.4119  -28.3068 N   0  0  0  0  0  0  0  0  0  0  0  0
  -24.3939   24.3949  -27.6291 C   0  0  0  0  0  0  0  0  0  0  0  0
  -25.0436   25.5435  -27.3165 N   0  0  0  0  0  0  0  0  0  0  0  0
  1  2  1  0
  2  3  1  0
  3  4  2  0
  4  5  1  0
  5  6  2  0
  6  7  1  0
  7  8  2  0
  8  9  1  0
  9 10  2  0
  9 11  1  0
 11 12  1  0
 12 13  2  0
 13 14  1  0
 14 15  1  0
 15 16  2  0
 15 17  1  0
 17 18  1  0
 18 19  1  0
 19 20  2  0
 20 21  1  0
 21 22  2  0
 22 23  1  0
 23 24  1  0
 23 25  2  0
 14 26  2  0
 26 27  1  0
 27 28  2  0
 28 29  1  0
  8 30  1  0
 30 31  1  0
 30 32  2  0
 32 33  1  0
 33 34  2  0
 34  3  1  0
 33  6  1  0
 28 12  1  0
 25 19  1  0
M  END
$$$$
