
     RDKit          3D

 18 19  0  0  0  0  0  0  0  0999 V2000
  -22.1704   41.3358  -18.9323 N   0  0  0  0  0  0  0  0  0  0  0  0
  -20.8226   40.8725  -18.8514 C   0  0  0  0  0  0  0  0  0  0  0  0
  -20.0877   40.7477  -17.7465 N   0  0  0  0  0  0  0  0  0  0  0  0
  -18.9296   40.2971  -18.1128 O   0  0  0  0  0  0  0  0  0  0  0  0
  -18.8585   40.1177  -19.3939 N   0  0  0  0  0  0  0  0  0  0  0  0
  -20.0333   40.4682  -19.9071 C   0  0  0  0  0  0  0  0  0  0  0  0
  -20.4323   40.4388  -21.3127 C   0  0  0  0  0  0  0  0  0  0  0  0
  -19.5996   40.2903  -22.2668 N   0  0  0  0  0  0  0  0  0  0  0  0
  -18.7250   39.1731  -22.2393 C   0  0  0  0  0  0  0  0  0  0  0  0
  -17.3813   39.4067  -22.4133 C   0  0  0  0  0  0  0  0  0  0  0  0
  -16.4434   38.3925  -22.4044 C   0  0  0  0  0  0  0  0  0  0  0  0
  -16.9199   37.1143  -22.2104 C   0  0  0  0  0  0  0  0  0  0  0  0
  -16.0471   36.0583  -22.1897 F   0  0  0  0  0  0  0  0  0  0  0  0
  -18.2596   36.8347  -22.0318 C   0  0  0  0  0  0  0  0  0  0  0  0
  -18.8444   35.0264  -21.7671 Br  0  0  0  0  0  0  0  0  0  0  0  0
  -19.1490   37.8832  -22.0498 C   0  0  0  0  0  0  0  0  0  0  0  0
  -21.8107   40.5823  -21.6281 N   0  0  0  0  0  0  0  0  0  0  0  0
  -22.2812   40.7861  -22.8616 O   0  0  0  0  0  0  0  0  0  0  0  0
  1  2  1  0
  2  3  2  0
  3  4  1  0
  4  5  1  0
  5  6  2  0
  6  7  1  0
  7  8  2  0
  8  9  1  0
  9 10  2  0
 10 11  1  0
 11 12  2  0
 12 13  1  0
 12 14  1  0
 14 15  1  0
 14 16  2  0
  7 17  1  0
 17 18  1  0
  6  2  1  0
 16  9  1  0
M  END
$$$$
