
     RDKit          3D

  9  9  0  0  0  0  0  0  0  0999 V2000
  -18.2199   35.1337  -24.6656 C   0  0  0  0  0  0  0  0  0  0  0  0
  -18.5836   35.5299  -23.2726 C   0  0  0  0  0  0  0  0  0  0  0  0
  -19.6828   34.9712  -22.6426 C   0  0  0  0  0  0  0  0  0  0  0  0
  -20.0136   35.3454  -21.3474 C   0  0  0  0  0  0  0  0  0  0  0  0
  -21.0969   34.8237  -20.6677 O   0  0  0  0  0  0  0  0  0  0  0  0
  -19.2389   36.2734  -20.7023 C   0  0  0  0  0  0  0  0  0  0  0  0
  -18.1581   36.7927  -21.3828 C   0  0  0  0  0  0  0  0  0  0  0  0
  -17.4428   37.6516  -20.7830 O   0  0  0  0  0  0  0  0  0  0  0  0
  -17.8903   36.4048  -22.6046 O   0  0  0  0  0  0  0  0  0  0  0  0
  1  2  1  0
  2  3  2  0
  3  4  1  0
  4  5  1  0
  4  6  2  0
  6  7  1  0
  7  8  2  0
  7  9  1  0
  9  2  1  0
M  END
$$$$
