
     RDKit          3D

 27 30  0  0  0  0  0  0  0  0999 V2000
  -16.5691   47.3143  -21.0661 C   0  0  0  0  0  0  0  0  0  0  0  0
  -16.7469   45.8193  -20.9223 C   0  0  0  0  0  0  0  0  0  0  0  0
  -15.9112   45.3710  -19.7577 C   0  0  0  0  0  0  0  0  0  0  0  0
  -16.2075   45.1521  -22.1668 C   0  0  0  0  0  0  0  0  0  0  0  0
  -18.1611   45.5587  -20.7370 N   0  0  0  0  0  0  0  0  0  0  0  0
  -18.8406   44.4966  -21.3799 C   0  0  0  0  0  0  0  0  0  0  0  0
  -19.0818   44.6952  -22.6224 O   0  0  0  0  0  0  0  0  0  0  0  0
  -19.2611   43.2645  -20.7684 C   0  0  1  0  0  0  0  0  0  0  0  0
  -20.5079   43.3254  -19.9159 C   0  0  0  0  0  0  0  0  0  0  0  0
  -21.0141   41.8765  -19.8490 C   0  0  0  0  0  0  0  0  0  0  0  0
  -19.9751   41.0966  -20.5615 C   0  0  1  0  0  0  0  0  0  0  0  0
  -20.3832   39.7848  -21.1120 C   0  0  2  0  0  0  0  0  0  0  0  0
  -20.7768   38.8957  -19.9726 C   0  0  0  0  0  0  0  0  0  0  0  0
  -21.1775   37.5640  -20.5961 C   0  0  0  0  0  0  0  0  0  0  0  0
  -19.9238   36.9668  -21.2047 C   0  0  1  0  0  0  0  0  0  0  0  0
  -20.1232   35.6313  -21.6692 N   0  0  0  0  0  0  0  0  0  0  0  0
  -18.9295   34.9910  -22.1888 C   0  0  0  0  0  0  0  0  0  0  0  0
  -18.7615   33.7623  -22.1161 O   0  0  0  0  0  0  0  0  0  0  0  0
  -17.9712   35.9195  -22.7928 C   0  0  0  0  0  0  0  0  0  0  0  0
  -18.1693   37.2276  -22.8694 C   0  0  0  0  0  0  0  0  0  0  0  0
  -19.4027   37.8183  -22.3389 C   0  0  1  0  0  0  0  0  0  0  0  0
  -20.4079   37.8612  -23.4832 C   0  0  0  0  0  0  0  0  0  0  0  0
  -19.1391   39.1816  -21.7793 C   0  0  1  0  0  0  0  0  0  0  0  0
  -18.6647   40.1361  -22.8527 C   0  0  0  0  0  0  0  0  0  0  0  0
  -18.3388   41.5048  -22.3034 C   0  0  0  0  0  0  0  0  0  0  0  0
  -19.5372   42.0914  -21.6529 C   0  0  2  0  0  0  0  0  0  0  0  0
  -20.6225   42.3070  -22.6565 C   0  0  0  0  0  0  0  0  0  0  0  0
  1  2  1  0
  2  3  1  0
  2  4  1  0
  2  5  1  0
  5  6  1  0
  6  7  2  0
  8  6  1  6
  8  9  1  0
  9 10  1  0
 11 10  1  6
 11 12  1  0
 12 13  1  1
 13 14  1  0
 15 14  1  6
 15 16  1  0
 16 17  1  0
 17 18  2  0
 17 19  1  0
 19 20  2  0
 20 21  1  0
 21 22  1  6
 21 23  1  0
 23 24  1  6
 24 25  1  0
 25 26  1  0
 26 27  1  6
 26  8  1  0
 26 11  1  0
 23 12  1  0
 21 15  1  0
M  END
$$$$
