
     RDKit          3D

 20 22  0  0  0  0  0  0  0  0999 V2000
  -32.8361   15.7063  -22.2340 O   0  0  0  0  0  0  0  0  0  0  0  0
  -31.9257   14.8848  -22.5128 C   0  0  0  0  0  0  0  0  0  0  0  0
  -32.2601   13.7075  -23.1296 O   0  0  0  0  0  0  0  0  0  0  0  0
  -30.5214   15.1785  -22.1839 C   0  0  0  0  0  0  0  0  0  0  0  0
  -30.2136   16.3354  -21.4993 C   0  0  0  0  0  0  0  0  0  0  0  0
  -28.8778   16.6110  -21.1885 C   0  0  0  0  0  0  0  0  0  0  0  0
  -27.8598   15.7648  -21.5440 C   0  0  0  0  0  0  0  0  0  0  0  0
  -26.5228   15.7605  -21.3901 N   0  0  0  0  0  0  0  0  0  0  0  0
  -26.0141   14.6578  -21.9489 C   0  0  0  0  0  0  0  0  0  0  0  0
  -24.6344   14.2088  -22.0394 C   0  0  0  0  0  0  0  0  0  0  0  0
  -24.2754   13.0287  -22.6566 C   0  0  0  0  0  0  0  0  0  0  0  0
  -22.9526   12.6186  -22.7319 C   0  0  0  0  0  0  0  0  0  0  0  0
  -22.5034   11.1217  -23.5156 Cl  0  0  0  0  0  0  0  0  0  0  0  0
  -21.9442   13.3828  -22.1881 C   0  0  0  0  0  0  0  0  0  0  0  0
  -22.2825   14.5601  -21.5700 C   0  0  0  0  0  0  0  0  0  0  0  0
  -21.0825   15.6098  -20.8446 Cl  0  0  0  0  0  0  0  0  0  0  0  0
  -23.6014   14.9529  -21.5039 C   0  0  0  0  0  0  0  0  0  0  0  0
  -27.0315   13.9973  -22.4383 O   0  0  0  0  0  0  0  0  0  0  0  0
  -28.1703   14.6091  -22.2283 C   0  0  0  0  0  0  0  0  0  0  0  0
  -29.4987   14.3446  -22.5320 C   0  0  0  0  0  0  0  0  0  0  0  0
  1  2  2  0
  2  3  1  0
  2  4  1  0
  4  5  2  0
  5  6  1  0
  6  7  2  0
  7  8  1  0
  8  9  2  0
  9 10  1  0
 10 11  2  0
 11 12  1  0
 12 13  1  0
 12 14  2  0
 14 15  1  0
 15 16  1  0
 15 17  2  0
  9 18  1  0
 18 19  1  0
 19 20  2  0
 20  4  1  0
 19  7  1  0
 17 10  1  0
M  END
$$$$
