
     RDKit          3D

 20 22  0  0  0  0  0  0  0  0999 V2000
  -20.1175   45.2363  -22.7296 C   0  0  0  0  0  0  0  0  0  0  0  0
  -20.4174   43.7882  -22.5032 C   0  0  0  0  0  0  0  0  0  0  0  0
  -21.7300   43.3673  -22.4774 C   0  0  0  0  0  0  0  0  0  0  0  0
  -21.9983   42.0131  -22.2652 C   0  0  0  0  0  0  0  0  0  0  0  0
  -23.3133   41.5745  -22.2366 O   0  0  0  0  0  0  0  0  0  0  0  0
  -20.9552   41.1151  -22.0847 C   0  0  0  0  0  0  0  0  0  0  0  0
  -19.6390   41.5285  -22.1091 C   0  0  0  0  0  0  0  0  0  0  0  0
  -19.4004   42.8745  -22.3209 C   0  0  0  0  0  0  0  0  0  0  0  0
  -18.5261   40.5781  -21.9177 C   0  0  0  0  0  0  0  0  0  0  0  0
  -17.3617   41.0528  -21.9571 O   0  0  0  0  0  0  0  0  0  0  0  0
  -18.8022   39.1715  -21.6973 C   0  0  0  0  0  0  0  0  0  0  0  0
  -17.7579   38.2912  -21.5195 C   0  0  0  0  0  0  0  0  0  0  0  0
  -17.9797   36.9476  -21.3076 C   0  0  0  0  0  0  0  0  0  0  0  0
  -16.9270   36.0439  -21.1258 O   0  0  0  0  0  0  0  0  0  0  0  0
  -19.2925   36.5222  -21.2811 C   0  0  0  0  0  0  0  0  0  0  0  0
  -20.3628   37.3829  -21.4564 C   0  0  0  0  0  0  0  0  0  0  0  0
  -21.6607   36.9081  -21.4214 O   0  0  0  0  0  0  0  0  0  0  0  0
  -20.1182   38.7398  -21.6698 C   0  0  0  0  0  0  0  0  0  0  0  0
  -21.2311   39.6811  -21.8597 C   0  0  0  0  0  0  0  0  0  0  0  0
  -22.4225   39.2796  -21.8332 O   0  0  0  0  0  0  0  0  0  0  0  0
  1  2  1  0
  2  3  2  0
  3  4  1  0
  4  5  1  0
  4  6  2  0
  6  7  1  0
  7  8  2  0
  7  9  1  0
  9 10  2  0
  9 11  1  0
 11 12  2  0
 12 13  1  0
 13 14  1  0
 13 15  2  0
 15 16  1  0
 16 17  1  0
 16 18  2  0
 18 19  1  0
 19 20  2  0
  8  2  1  0
 18 11  1  0
 19  6  1  0
M  END
$$$$
