
     RDKit          3D

 33 35  0  0  0  0  0  0  0  0999 V2000
  -14.8757   42.2201  -17.7371 C   0  0  0  0  0  0  0  0  0  0  0  0
  -15.5410   43.0678  -18.6229 O   0  0  0  0  0  0  0  0  0  0  0  0
  -16.5194   42.6454  -19.4983 C   0  0  0  0  0  0  0  0  0  0  0  0
  -16.9006   41.3232  -19.5427 C   0  0  0  0  0  0  0  0  0  0  0  0
  -17.8905   40.8956  -20.4276 C   0  0  0  0  0  0  0  0  0  0  0  0
  -18.2294   39.5727  -20.4560 N   0  0  0  0  0  0  0  0  0  0  0  0
  -19.1572   39.1180  -21.2959 C   0  0  0  0  0  0  0  0  0  0  0  0
  -19.5304   37.7111  -21.3415 C   0  0  0  0  0  0  0  0  0  0  0  0
  -20.4940   37.2588  -22.2164 C   0  0  0  0  0  0  0  0  0  0  0  0
  -20.8576   35.9262  -22.2703 C   0  0  0  0  0  0  0  0  0  0  0  0
  -21.7977   35.4829  -23.1230 F   0  0  0  0  0  0  0  0  0  0  0  0
  -20.2446   35.0155  -21.4290 C   0  0  0  0  0  0  0  0  0  0  0  0
  -19.2760   35.4318  -20.5405 C   0  0  0  0  0  0  0  0  0  0  0  0
  -18.9481   36.7669  -20.5234 C   0  0  0  0  0  0  0  0  0  0  0  0
  -17.9771   37.2178  -19.6404 O   0  0  0  0  0  0  0  0  0  0  0  0
  -19.7525   39.9731  -22.1096 N   0  0  0  0  0  0  0  0  0  0  0  0
  -19.4895   41.3267  -22.1648 C   0  0  0  0  0  0  0  0  0  0  0  0
  -20.1968   42.0835  -23.0838 N   0  0  0  0  0  0  0  0  0  0  0  0
  -20.3840   43.4222  -23.4678 C   0  0  2  0  0  0  0  0  0  0  0  0
  -21.0850   44.3123  -22.4925 C   0  0  0  0  0  0  0  0  0  0  0  0
  -22.5084   44.2707  -22.7714 N   0  0  0  0  0  0  0  0  0  0  0  0
  -22.6728   43.6210  -24.0299 C   0  0  0  0  0  0  0  0  0  0  0  0
  -21.3504   43.5305  -24.6782 C   0  0  1  0  0  0  0  0  0  0  0  0
  -20.9704   44.6057  -25.6185 C   0  0  0  0  0  0  0  0  0  0  0  0
  -19.5785   44.3853  -26.1920 C   0  0  0  0  0  0  0  0  0  0  0  0
  -21.0270   46.0008  -25.1054 C   0  0  0  0  0  0  0  0  0  0  0  0
  -21.8429   44.5288  -26.7192 O   0  0  0  0  0  0  0  0  0  0  0  0
  -18.5294   41.7606  -21.2899 C   0  0  0  0  0  0  0  0  0  0  0  0
  -18.1420   43.0819  -21.2407 C   0  0  0  0  0  0  0  0  0  0  0  0
  -17.1631   43.4986  -20.3639 C   0  0  0  0  0  0  0  0  0  0  0  0
  -16.7773   44.8305  -20.3180 O   0  0  0  0  0  0  0  0  0  0  0  0
  -17.4130   45.7403  -21.1903 C   0  0  0  0  0  0  0  0  0  0  0  0
  -18.9791   41.4419  -22.3673 Cl  0  0  0  0  0  0  0  0  0  0  0  0
  1  2  1  0
  2  3  1  0
  3  4  2  0
  4  5  1  0
  5  6  2  0
  6  7  1  0
  7  8  1  0
  8  9  2  0
  9 10  1  0
 10 11  1  0
 10 12  2  0
 12 13  1  0
 13 14  2  0
 14 15  1  0
  7 16  2  0
 16 17  1  0
 17 18  1  0
 19 18  1  1
 19 20  1  0
 20 21  1  0
 21 22  1  0
 22 23  1  0
 23 24  1  1
 24 25  1  0
 24 26  1  0
 24 27  1  0
 17 28  2  0
 28 29  1  0
 29 30  2  0
 30 31  1  0
 31 32  1  0
 30  3  1  0
 28  5  1  0
 14  8  1  0
 23 19  1  0
M  END
$$$$
