
     RDKit          3D

 15 16  0  0  0  0  0  0  0  0999 V2000
  -18.8731   34.6896  -23.5735 C   0  0  0  0  0  0  0  0  0  0  0  0
  -19.6824   35.9602  -23.7516 C   0  0  0  0  0  0  0  0  0  0  0  0
  -20.7735   35.7205  -24.7902 C   0  0  0  0  0  0  0  0  0  0  0  0
  -20.1994   36.4824  -22.5300 N   0  0  0  0  0  0  0  0  0  0  0  0
  -21.3376   36.0586  -21.9521 N   0  0  0  0  0  0  0  0  0  0  0  0
  -21.5558   36.7249  -20.8371 N   0  0  0  0  0  0  0  0  0  0  0  0
  -20.5381   37.6070  -20.6777 C   0  0  0  0  0  0  0  0  0  0  0  0
  -20.2302   38.5476  -19.7240 C   0  0  0  0  0  0  0  0  0  0  0  0
  -19.0946   39.3176  -19.8336 C   0  0  0  0  0  0  0  0  0  0  0  0
  -18.8013   40.3032  -18.8045 C   0  0  0  0  0  0  0  0  0  0  0  0
  -17.8288   41.0604  -18.9362 O   0  0  0  0  0  0  0  0  0  0  0  0
  -19.6215   40.3720  -17.6947 O   0  0  0  0  0  0  0  0  0  0  0  0
  -18.2324   39.1591  -20.9155 C   0  0  0  0  0  0  0  0  0  0  0  0
  -18.5451   38.2197  -21.8629 C   0  0  0  0  0  0  0  0  0  0  0  0
  -19.6873   37.4506  -21.7454 C   0  0  0  0  0  0  0  0  0  0  0  0
  1  2  1  0
  2  3  1  0
  2  4  1  0
  4  5  1  0
  5  6  2  0
  6  7  1  0
  7  8  2  0
  8  9  1  0
  9 10  1  0
 10 11  2  0
 10 12  1  0
  9 13  2  0
 13 14  1  0
 14 15  2  0
 15  4  1  0
 15  7  1  0
M  END
$$$$
