
     RDKit          3D

 23 25  0  0  0  0  0  0  0  0999 V2000
  -15.1843   45.4401  -18.1432 C   0  0  0  0  0  0  0  0  0  0  0  0
  -14.8938   45.4621  -19.5056 O   0  0  0  0  0  0  0  0  0  0  0  0
  -15.7830   45.2802  -20.5239 C   0  0  0  0  0  0  0  0  0  0  0  0
  -15.5531   45.8161  -21.7730 C   0  0  0  0  0  0  0  0  0  0  0  0
  -16.4676   45.6209  -22.7950 C   0  0  0  0  0  0  0  0  0  0  0  0
  -17.6270   44.8879  -22.5886 C   0  0  0  0  0  0  0  0  0  0  0  0
  -18.5611   44.6747  -23.5897 O   0  0  0  0  0  0  0  0  0  0  0  0
  -18.3227   45.2053  -24.8641 C   0  0  0  0  0  0  0  0  0  0  0  0
  -17.8652   44.3440  -21.3296 C   0  0  0  0  0  0  0  0  0  0  0  0
  -19.3262   43.4240  -21.0810 S   0  0  0  0  0  6  0  0  0  0  0  0
  -19.4494   42.9082  -19.6824 O   0  0  0  0  0  0  0  0  0  0  0  0
  -20.5316   44.3154  -21.3383 O   0  0  0  0  0  0  0  0  0  0  0  0
  -19.3372   42.0695  -22.1482 N   0  0  0  0  0  0  0  0  0  0  0  0
  -20.1240   41.9583  -23.2296 N   0  0  0  0  0  0  0  0  0  0  0  0
  -19.8952   40.8141  -23.8304 N   0  0  0  0  0  0  0  0  0  0  0  0
  -18.9509   40.1476  -23.1549 C   0  0  0  0  0  0  0  0  0  0  0  0
  -18.3817   38.9191  -23.3911 C   0  0  0  0  0  0  0  0  0  0  0  0
  -17.4138   38.4697  -22.5169 C   0  0  0  0  0  0  0  0  0  0  0  0
  -16.6761   36.9101  -22.7977 Cl  0  0  0  0  0  0  0  0  0  0  0  0
  -17.0562   39.2697  -21.4424 C   0  0  0  0  0  0  0  0  0  0  0  0
  -17.6411   40.5094  -21.2175 C   0  0  0  0  0  0  0  0  0  0  0  0
  -18.6026   40.9484  -22.0914 C   0  0  0  0  0  0  0  0  0  0  0  0
  -16.9430   44.5487  -20.3233 C   0  0  0  0  0  0  0  0  0  0  0  0
  1  2  1  0
  2  3  1  0
  3  4  2  0
  4  5  1  0
  5  6  2  0
  6  7  1  0
  7  8  1  0
  6  9  1  0
  9 10  1  0
 10 11  2  0
 10 12  2  0
 10 13  1  0
 13 14  1  0
 14 15  2  0
 15 16  1  0
 16 17  2  0
 17 18  1  0
 18 19  1  0
 18 20  2  0
 20 21  1  0
 21 22  2  0
  9 23  2  0
 23  3  1  0
 22 13  1  0
 22 16  1  0
M  END
$$$$
