
     RDKit          3D

 24 26  0  0  0  0  0  0  0  0999 V2000
  -18.7289   20.5560  -29.5877 C   0  0  0  0  0  0  0  0  0  0  0  0
  -19.3086   20.4531  -30.8702 O   0  0  0  0  0  0  0  0  0  0  0  0
  -19.1918   19.2060  -31.5191 C   0  0  0  0  0  0  0  0  0  0  0  0
  -18.6766   19.1121  -32.8047 C   0  0  0  0  0  0  0  0  0  0  0  0
  -18.5596   17.9029  -33.4419 C   0  0  0  0  0  0  0  0  0  0  0  0
  -18.9731   16.7453  -32.7684 C   0  0  0  0  0  0  0  0  0  0  0  0
  -18.8535   15.5252  -33.4070 O   0  0  0  0  0  0  0  0  0  0  0  0
  -17.6471   15.0228  -33.9299 C   0  0  0  0  0  0  0  0  0  0  0  0
  -19.4890   16.7780  -31.5006 C   0  0  0  0  0  0  0  0  0  0  0  0
  -20.0445   15.3767  -30.6192 S   0  0  0  0  0  6  0  0  0  0  0  0
  -20.3025   14.2732  -31.6367 O   0  0  0  0  0  0  0  0  0  0  0  0
  -21.3820   15.7656  -29.9896 O   0  0  0  0  0  0  0  0  0  0  0  0
  -19.0130   14.8212  -29.3990 N   0  0  0  0  0  0  0  0  0  0  0  0
  -17.6533   14.5133  -29.5077 C   0  0  0  0  0  0  0  0  0  0  0  0
  -16.9331   14.2011  -28.3469 C   0  0  0  0  0  0  0  0  0  0  0  0
  -15.6328   13.9060  -28.4459 N   0  0  0  0  0  0  0  0  0  0  0  0
  -14.9728   13.8941  -29.6229 C   0  0  0  0  0  0  0  0  0  0  0  0
  -13.6365   13.5896  -29.7146 C   0  0  0  0  0  0  0  0  0  0  0  0
  -12.9428   13.5719  -30.9099 C   0  0  0  0  0  0  0  0  0  0  0  0
  -13.6458   13.8806  -32.0761 C   0  0  0  0  0  0  0  0  0  0  0  0
  -14.9773   14.1860  -32.0009 C   0  0  0  0  0  0  0  0  0  0  0  0
  -15.6409   14.1949  -30.7918 C   0  0  0  0  0  0  0  0  0  0  0  0
  -16.9800   14.4992  -30.6932 C   0  0  0  0  0  0  0  0  0  0  0  0
  -19.5798   18.0464  -30.9094 C   0  0  0  0  0  0  0  0  0  0  0  0
  1  2  1  0
  2  3  1  0
  3  4  2  0
  4  5  1  0
  5  6  2  0
  6  7  1  0
  7  8  1  0
  6  9  1  0
  9 10  1  0
 10 11  2  0
 10 12  2  0
 10 13  1  0
 13 14  1  0
 14 15  2  0
 15 16  1  0
 16 17  2  0
 17 18  1  0
 18 19  2  0
 19 20  1  0
 20 21  2  0
 21 22  1  0
 22 23  2  0
  9 24  2  0
 24  3  1  0
 23 14  1  0
 22 17  1  0
M  END
$$$$
