
     RDKit          3D

 13 12  0  0  0  0  0  0  0  0999 V2000
  -33.5157    8.8057  -16.7426 N   0  0  0  0  0  0  0  0  0  0  0  0
  -33.3121    9.1796  -18.1350 C   0  0  0  0  0  0  0  0  0  0  0  0
  -33.0149   10.6399  -18.1713 C   0  0  0  0  0  0  0  0  0  0  0  0
  -33.2784   11.2852  -19.4106 N   0  0  0  0  0  0  0  0  0  0  0  0
  -32.1130   11.7238  -20.1560 C   0  0  0  0  0  0  0  0  0  0  0  0
  -31.3654   12.7657  -19.3728 C   0  0  0  0  0  0  0  0  0  0  0  0
  -30.1343   13.1719  -20.0186 N   0  0  0  0  0  0  0  0  0  0  0  0
  -30.4767   14.0305  -21.1443 C   0  0  0  0  0  0  0  0  0  0  0  0
  -30.1454   15.4810  -20.9237 C   0  0  0  0  0  0  0  0  0  0  0  0
  -28.7669   15.6563  -21.2871 N   0  0  0  0  0  0  0  0  0  0  0  0
  -28.5166   16.7063  -22.2556 C   0  0  0  0  0  0  0  0  0  0  0  0
  -27.0449   16.7014  -22.6699 C   0  0  0  0  0  0  0  0  0  0  0  0
  -26.8063   17.7448  -23.6225 N   0  0  0  0  0  0  0  0  0  0  0  0
  1  2  1  0
  2  3  1  0
  3  4  1  0
  4  5  1  0
  5  6  1  0
  6  7  1  0
  7  8  1  0
  8  9  1  0
  9 10  1  0
 10 11  1  0
 11 12  1  0
 12 13  1  0
M  END
$$$$
