
     RDKit          3D

 25 27  0  0  0  0  0  0  0  0999 V2000
  -19.1695   42.1147  -18.5233 O   0  0  0  0  0  0  0  0  0  0  0  0
  -19.3402   41.0332  -19.1371 C   0  0  0  0  0  0  0  0  0  0  0  0
  -19.5948   39.7319  -18.6277 N   0  0  0  0  0  0  0  0  0  0  0  0
  -19.7181   38.8059  -19.7009 C   0  0  0  0  0  0  0  0  0  0  0  0
  -19.9478   37.5817  -19.5584 O   0  0  0  0  0  0  0  0  0  0  0  0
  -19.5278   39.5918  -20.9177 C   0  0  0  0  0  0  0  0  0  0  0  0
  -19.6081   39.0059  -22.2458 C   0  0  0  0  0  0  0  0  0  0  0  0
  -20.3274   39.5367  -23.2835 C   0  0  0  0  0  0  0  0  0  0  0  0
  -20.3693   38.9636  -24.5393 C   0  0  0  0  0  0  0  0  0  0  0  0
  -19.6611   37.7948  -24.7960 C   0  0  0  0  0  0  0  0  0  0  0  0
  -18.9357   37.2494  -23.7748 C   0  0  0  0  0  0  0  0  0  0  0  0
  -18.8955   37.8339  -22.5065 C   0  0  0  0  0  0  0  0  0  0  0  0
  -18.0802   37.1800  -21.5592 N   0  0  0  0  0  4  0  0  0  0  0  0
  -18.2546   35.9808  -21.3241 O   0  0  0  0  0  0  0  0  0  0  0  0
  -17.1120   37.8572  -20.8828 O   0  0  0  0  0  1  0  0  0  0  0  0
  -19.3121   40.8680  -20.6114 C   0  0  0  0  0  0  0  0  0  0  0  0
  -19.0962   41.9520  -21.4862 N   0  0  0  0  0  0  0  0  0  0  0  0
  -18.7778   43.2707  -21.0905 C   0  0  0  0  0  0  0  0  0  0  0  0
  -17.5756   43.5433  -20.4041 C   0  0  0  0  0  0  0  0  0  0  0  0
  -17.2336   44.8063  -19.9822 C   0  0  0  0  0  0  0  0  0  0  0  0
  -18.1080   45.8432  -20.2457 C   0  0  0  0  0  0  0  0  0  0  0  0
  -17.7809   47.1292  -19.8275 O   0  0  0  0  0  0  0  0  0  0  0  0
  -19.2736   45.5855  -20.9090 C   0  0  0  0  0  0  0  0  0  0  0  0
  -20.3680   46.9221  -21.2242 Cl  0  0  0  0  0  0  0  0  0  0  0  0
  -19.6206   44.3167  -21.3356 C   0  0  0  0  0  0  0  0  0  0  0  0
  1  2  2  0
  2  3  1  0
  3  4  1  0
  4  5  2  0
  4  6  1  0
  6  7  1  0
  7  8  2  0
  8  9  1  0
  9 10  2  0
 10 11  1  0
 11 12  2  0
 12 13  1  0
 13 14  2  0
 13 15  1  0
  6 16  2  0
 16 17  1  0
 17 18  1  0
 18 19  2  0
 19 20  1  0
 20 21  2  0
 21 22  1  0
 21 23  1  0
 23 24  1  0
 23 25  2  0
 16  2  1  0
 25 18  1  0
 12  7  1  0
M  CHG  2  13   1  15  -1
M  END
$$$$
