
     RDKit          3D

 42 46  0  0  0  0  0  0  0  0999 V2000
  -13.4047   14.4800  -36.2489 C   0  0  0  0  0  0  0  0  0  0  0  0
  -13.3416   15.8512  -36.5109 O   0  0  0  0  0  0  0  0  0  0  0  0
  -14.3946   16.5312  -37.1130 C   0  0  0  0  0  0  0  0  0  0  0  0
  -14.3682   17.9286  -37.1998 C   0  0  0  0  0  0  0  0  0  0  0  0
  -15.4312   18.5594  -37.8033 C   0  0  0  0  0  0  0  0  0  0  0  0
  -16.5089   17.8845  -38.3201 C   0  0  0  0  0  0  0  0  0  0  0  0
  -17.5807   18.6173  -38.9438 N   0  0  0  0  0  0  0  0  0  0  0  0
  -18.7259   18.9979  -38.2076 C   0  0  0  0  0  0  0  0  0  0  0  0
  -18.7136   18.9497  -36.9604 O   0  0  0  0  0  0  0  0  0  0  0  0
  -19.8832   19.4349  -38.8995 N   0  0  0  0  0  0  0  0  0  0  0  0
  -21.0872   19.7935  -38.2583 C   0  0  0  0  0  0  0  0  0  0  0  0
  -21.3722   21.0923  -37.8838 C   0  0  0  0  0  0  0  0  0  0  0  0
  -20.3712   22.1692  -38.1637 C   0  0  0  0  0  0  0  0  0  0  0  0
  -22.5659   21.4020  -37.2569 C   0  0  0  0  0  0  0  0  0  0  0  0
  -23.5066   20.4317  -36.9846 C   0  0  0  0  0  0  0  0  0  0  0  0
  -23.1998   19.1222  -37.3714 C   0  0  0  0  0  0  0  0  0  0  0  0
  -22.0149   18.8077  -37.9960 C   0  0  0  0  0  0  0  0  0  0  0  0
  -21.7098   17.4188  -38.4007 C   0  0  0  0  0  0  0  0  0  0  0  0
  -17.4963   18.9667  -40.3137 C   0  0  0  0  0  0  0  0  0  0  0  0
  -16.5953   18.3014  -41.1096 C   0  0  0  0  0  0  0  0  0  0  0  0
  -16.4211   18.5917  -42.4707 C   0  0  0  0  0  0  0  0  0  0  0  0
  -15.5011   17.8509  -43.2525 N   0  0  0  0  0  0  0  0  0  0  0  0
  -14.1074   18.0644  -43.1566 C   0  0  0  0  0  0  0  0  0  0  0  0
  -13.2681   18.2230  -44.2330 C   0  0  0  0  0  0  0  0  0  0  0  0
  -11.9090   18.4177  -44.1106 C   0  0  0  0  0  0  0  0  0  0  0  0
  -11.3031   18.4649  -42.8574 C   0  0  0  0  0  0  0  0  0  0  0  0
   -9.9179   18.6644  -42.7056 N   0  0  0  0  0  0  0  0  0  0  0  0
   -8.9587   17.6981  -43.2265 C   0  0  0  0  0  0  0  0  0  0  0  0
   -7.6831   17.8498  -42.4557 C   0  0  0  0  0  0  0  0  0  0  0  0
   -7.1112   19.1389  -42.7032 N   0  0  0  0  0  0  0  0  0  0  0  0
   -6.3686   19.2358  -43.9343 C   0  0  0  0  0  0  0  0  0  0  0  0
   -8.0091   20.2235  -42.4856 C   0  0  0  0  0  0  0  0  0  0  0  0
   -9.3980   19.8084  -42.0404 C   0  0  0  0  0  0  0  0  0  0  0  0
  -12.1196   18.3089  -41.7722 C   0  0  0  0  0  0  0  0  0  0  0  0
  -13.4983   18.1116  -41.8979 C   0  0  0  0  0  0  0  0  0  0  0  0
  -17.2030   19.5725  -42.9369 N   0  0  0  0  0  0  0  0  0  0  0  0
  -18.0909   20.2444  -42.2008 C   0  0  0  0  0  0  0  0  0  0  0  0
  -18.2337   19.9340  -40.8803 N   0  0  0  0  0  0  0  0  0  0  0  0
  -16.5322   16.5179  -38.2338 C   0  0  0  0  0  0  0  0  0  0  0  0
  -17.5796   15.7611  -38.7279 O   0  0  0  0  0  0  0  0  0  0  0  0
  -17.4970   14.3656  -38.8001 C   0  0  0  0  0  0  0  0  0  0  0  0
  -15.4697   15.8569  -37.6290 C   0  0  0  0  0  0  0  0  0  0  0  0
  1  2  1  0
  2  3  1  0
  3  4  2  0
  4  5  1  0
  5  6  2  0
  6  7  1  0
  7  8  1  0
  8  9  2  0
  8 10  1  0
 10 11  1  0
 11 12  2  0
 12 13  1  0
 12 14  1  0
 14 15  2  0
 15 16  1  0
 16 17  2  0
 17 18  1  0
  7 19  1  0
 19 20  2  0
 20 21  1  0
 21 22  1  0
 22 23  1  0
 23 24  2  0
 24 25  1  0
 25 26  2  0
 26 27  1  0
 27 28  1  0
 28 29  1  0
 29 30  1  0
 30 31  1  0
 30 32  1  0
 32 33  1  0
 26 34  1  0
 34 35  2  0
 21 36  2  0
 36 37  1  0
 37 38  2  0
  6 39  1  0
 39 40  1  0
 40 41  1  0
 39 42  2  0
 42  3  1  0
 17 11  1  0
 38 19  1  0
 35 23  1  0
 33 27  1  0
M  END
$$$$
