
     RDKit          3D

 35 41  0  0  0  0  0  0  0  0999 V2000
  -20.4695   32.7025  -20.9389 O   0  0  0  0  0  0  0  0  0  0  0  0
  -20.4416   33.8002  -21.5037 C   0  0  0  0  0  0  0  0  0  0  0  0
  -19.1583   34.2620  -22.1435 C   0  0  0  0  0  0  0  0  0  0  0  0
  -18.8512   35.6149  -21.5123 C   0  0  0  0  0  0  0  0  0  0  0  0
  -19.9722   36.5452  -21.7452 C   0  0  0  0  0  0  0  0  0  0  0  0
  -19.7219   37.9133  -21.9435 C   0  0  0  0  0  0  0  0  0  0  0  0
  -18.4548   38.3883  -21.9612 O   0  0  0  0  0  0  0  0  0  0  0  0
  -18.1010   39.6976  -22.2254 C   0  0  0  0  0  0  0  0  0  0  0  0
  -17.8051   40.1512  -23.4903 C   0  0  0  0  0  0  0  0  0  0  0  0
  -17.4614   41.4565  -23.6944 C   0  0  0  0  0  0  0  0  0  0  0  0
  -17.4086   42.3418  -22.6114 C   0  0  0  0  0  0  0  0  0  0  0  0
  -17.6950   41.9339  -21.3362 C   0  0  0  0  0  0  0  0  0  0  0  0
  -18.0425   40.6005  -21.1526 C   0  0  0  0  0  0  0  0  0  0  0  0
  -17.5518   43.0928  -20.4237 C   0  0  2  0  0  0  0  0  0  0  0  0
  -17.2250   44.2032  -21.3395 C   0  0  2  0  0  0  0  0  0  0  0  0
  -17.0821   43.6885  -22.6309 O   0  0  0  0  0  0  0  0  0  0  0  0
  -16.1947   43.6861  -20.3435 C   0  0  1  0  0  0  0  0  0  0  0  0
  -15.8433   44.6658  -19.3126 C   0  0  0  0  0  0  0  0  0  0  0  0
  -14.6442   44.9243  -18.7643 N   0  0  0  0  0  0  0  0  0  0  0  0
  -14.7416   45.8992  -17.8500 C   0  0  0  0  0  0  0  0  0  0  0  0
  -13.8717   46.5549  -17.0016 C   0  0  0  0  0  0  0  0  0  0  0  0
  -14.3217   47.5508  -16.1550 C   0  0  0  0  0  0  0  0  0  0  0  0
  -15.6341   47.9282  -16.1193 C   0  0  0  0  0  0  0  0  0  0  0  0
  -16.1680   48.9866  -15.2336 C   0  0  0  0  0  0  0  0  0  0  0  0
  -15.1380   49.4895  -14.4529 F   0  0  0  0  0  0  0  0  0  0  0  0
  -17.1117   48.4753  -14.3673 F   0  0  0  0  0  0  0  0  0  0  0  0
  -16.6935   50.0411  -15.9462 F   0  0  0  0  0  0  0  0  0  0  0  0
  -16.5105   47.2789  -16.9632 C   0  0  0  0  0  0  0  0  0  0  0  0
  -16.0788   46.2813  -17.8159 C   0  0  0  0  0  0  0  0  0  0  0  0
  -16.7054   45.5059  -18.7189 N   0  0  0  0  0  0  0  0  0  0  0  0
  -20.8050   38.7342  -22.1205 C   0  0  0  0  0  0  0  0  0  0  0  0
  -22.0996   38.2396  -22.1051 C   0  0  0  0  0  0  0  0  0  0  0  0
  -22.3218   36.9425  -21.9173 N   0  0  0  0  0  0  0  0  0  0  0  0
  -21.2702   36.1102  -21.7415 C   0  0  0  0  0  0  0  0  0  0  0  0
  -21.5315   34.6986  -21.6145 N   0  0  0  0  0  0  0  0  0  0  0  0
  1  2  2  0
  2  3  1  0
  3  4  1  0
  4  5  1  0
  5  6  2  0
  6  7  1  0
  7  8  1  0
  8  9  2  0
  9 10  1  0
 10 11  2  0
 11 12  1  0
 12 13  2  0
 14 12  1  6
 14 15  1  0
 15 16  1  6
 15 17  1  0
 17 18  1  1
 18 19  2  0
 19 20  1  0
 20 21  2  0
 21 22  1  0
 22 23  2  0
 23 24  1  0
 24 25  1  0
 24 26  1  0
 24 27  1  0
 23 28  1  0
 28 29  2  0
 29 30  1  0
  6 31  1  0
 31 32  2  0
 32 33  1  0
 33 34  2  0
 34 35  1  0
 35  2  1  0
 34  5  1  0
 13  8  1  0
 17 14  1  0
 30 18  1  0
 16 11  1  0
 29 20  1  0
M  END
$$$$
