
     RDKit          3D

 26 28  0  0  0  0  0  0  0  0999 V2000
  -23.3328   35.6703  -26.5648 C   0  0  0  0  0  0  0  0  0  0  0  0
  -23.4125   36.9563  -26.3651 C   0  0  0  0  0  0  0  0  0  0  0  0
  -24.6481   37.5000  -25.7209 C   0  0  0  0  0  0  0  0  0  0  0  0
  -22.3267   37.8459  -26.7585 C   0  0  0  0  0  0  0  0  0  0  0  0
  -21.4323   37.5915  -27.7633 C   0  0  0  0  0  0  0  0  0  0  0  0
  -20.4188   38.4714  -28.0975 C   0  0  0  0  0  0  0  0  0  0  0  0
  -20.2655   39.6495  -27.4283 C   0  0  0  0  0  0  0  0  0  0  0  0
  -21.1403   39.9505  -26.4096 C   0  0  0  0  0  0  0  0  0  0  0  0
  -21.0042   41.2231  -25.6574 C   0  0  0  0  0  0  0  0  0  0  0  0
  -22.2312   41.5051  -24.8559 C   0  0  0  0  0  0  0  0  0  0  0  0
  -20.9221   42.3164  -26.7247 C   0  0  0  0  0  0  0  0  0  0  0  0
  -19.8118   41.2218  -24.8355 N   0  0  0  0  0  0  0  0  0  0  0  0
  -19.5230   40.1547  -23.9755 C   0  0  0  0  0  0  0  0  0  0  0  0
  -20.3782   39.2516  -23.8035 O   0  0  0  0  0  0  0  0  0  0  0  0
  -18.2683   40.0483  -23.2701 N   0  0  0  0  0  0  0  0  0  0  0  0
  -18.1537   39.0787  -22.2523 C   0  0  0  0  0  0  0  0  0  0  0  0
  -18.0406   39.4833  -20.9512 C   0  0  0  0  0  0  0  0  0  0  0  0
  -17.9282   38.5383  -19.9523 C   0  0  0  0  0  0  0  0  0  0  0  0
  -17.9281   37.1880  -20.2445 C   0  0  0  0  0  0  0  0  0  0  0  0
  -18.0435   36.7924  -21.5675 C   0  0  0  0  0  0  0  0  0  0  0  0
  -18.1569   37.7504  -22.5749 C   0  0  0  0  0  0  0  0  0  0  0  0
  -18.0416   35.4339  -21.8431 O   0  0  0  0  0  0  0  0  0  0  0  0
  -17.9158   34.4301  -20.8763 C   0  0  0  0  0  0  0  0  0  0  0  0
  -18.2487   34.8955  -19.4841 C   0  0  0  0  0  0  0  0  0  0  0  0
  -17.8156   36.2249  -19.2482 O   0  0  0  0  0  0  0  0  0  0  0  0
  -22.1402   39.0647  -26.0921 C   0  0  0  0  0  0  0  0  0  0  0  0
  1  2  2  0
  2  3  1  0
  2  4  1  0
  4  5  2  0
  5  6  1  0
  6  7  2  0
  7  8  1  0
  8  9  1  0
  9 10  1  0
  9 11  1  0
  9 12  1  0
 12 13  1  0
 13 14  2  0
 13 15  1  0
 15 16  1  0
 16 17  2  0
 17 18  1  0
 18 19  2  0
 19 20  1  0
 20 21  2  0
 20 22  1  0
 22 23  1  0
 23 24  1  0
 24 25  1  0
  8 26  2  0
 26  4  1  0
 21 16  1  0
 25 19  1  0
M  END
$$$$
