
     RDKit          3D

 22 25  0  0  0  0  0  0  0  0999 V2000
  -23.0463   18.4113  -31.6291 C   0  0  0  0  0  0  0  0  0  0  0  0
  -22.9180   19.4855  -30.6076 C   0  0  0  0  0  0  0  0  0  0  0  0
  -21.6921   19.9749  -30.1935 C   0  0  0  0  0  0  0  0  0  0  0  0
  -21.6814   20.9755  -29.2427 C   0  0  0  0  0  0  0  0  0  0  0  0
  -22.8367   21.4944  -28.7015 C   0  0  0  0  0  0  0  0  0  0  0  0
  -24.0390   20.9788  -29.1417 C   0  0  0  0  0  0  0  0  0  0  0  0
  -25.2959   21.4914  -28.6144 C   0  0  0  0  0  0  0  0  0  0  0  0
  -26.4201   20.7743  -28.3676 N   0  0  0  0  0  0  0  0  0  0  0  0
  -27.3671   21.5555  -27.8907 N   0  0  0  0  0  0  0  0  0  0  0  0
  -26.8645   22.8091  -27.8198 C   0  0  0  0  0  0  0  0  0  0  0  0
  -25.5570   22.7906  -28.2724 C   0  0  0  0  0  0  0  0  0  0  0  0
  -24.6297   23.9023  -28.3769 C   0  0  0  0  0  0  0  0  0  0  0  0
  -24.1248   24.5623  -27.2725 C   0  0  0  0  0  0  0  0  0  0  0  0
  -23.2491   25.6091  -27.4470 C   0  0  0  0  0  0  0  0  0  0  0  0
  -22.8594   26.0219  -28.6628 N   0  0  0  0  0  0  0  0  0  0  0  0
  -23.3202   25.4148  -29.7607 C   0  0  0  0  0  0  0  0  0  0  0  0
  -22.8889   25.8719  -30.9907 C   0  0  0  0  0  0  0  0  0  0  0  0
  -23.3826   25.2195  -32.1025 C   0  0  0  0  0  0  0  0  0  0  0  0
  -24.2592   24.1670  -32.0229 C   0  0  0  0  0  0  0  0  0  0  0  0
  -24.6581   23.7498  -30.7738 C   0  0  0  0  0  0  0  0  0  0  0  0
  -24.1975   24.3645  -29.6133 C   0  0  0  0  0  0  0  0  0  0  0  0
  -24.0255   19.9973  -30.0748 N   0  0  0  0  0  0  0  0  0  0  0  0
  1  2  1  0
  2  3  2  0
  3  4  1  0
  4  5  2  0
  5  6  1  0
  6  7  1  0
  7  8  2  0
  8  9  1  0
  9 10  1  0
 10 11  2  0
 11 12  1  0
 12 13  2  0
 13 14  1  0
 14 15  2  0
 15 16  1  0
 16 17  2  0
 17 18  1  0
 18 19  2  0
 19 20  1  0
 20 21  2  0
  6 22  2  0
 22  2  1  0
 11  7  1  0
 21 12  1  0
 21 16  1  0
M  END
$$$$
