
     RDKit          3D

 30 34  0  0  0  0  0  0  0  0999 V2000
  -11.9076   44.2750  -15.7945 C   0  0  0  0  0  0  0  0  0  0  0  0
  -12.5769   44.4072  -17.0648 N   0  0  0  0  0  0  0  0  0  0  0  0
  -13.8767   44.1463  -17.3453 C   0  0  0  0  0  0  0  0  0  0  0  0
  -14.0869   44.4091  -18.6792 C   0  0  0  0  0  0  0  0  0  0  0  0
  -15.3107   44.2870  -19.4640 C   0  0  0  0  0  0  0  0  0  0  0  0
  -16.5048   43.9041  -18.8908 C   0  0  0  0  0  0  0  0  0  0  0  0
  -17.6706   43.7814  -19.6088 C   0  0  0  0  0  0  0  0  0  0  0  0
  -17.7079   44.0443  -20.9901 C   0  0  0  0  0  0  0  0  0  0  0  0
  -18.9519   43.9393  -21.7212 C   0  0  0  0  0  0  0  0  0  0  0  0
  -19.5413   45.0893  -22.2665 C   0  0  0  0  0  0  0  0  0  0  0  0
  -20.6896   45.0248  -22.9639 N   0  0  0  0  0  0  0  0  0  0  0  0
  -21.3379   43.8691  -23.1802 C   0  0  0  0  0  0  0  0  0  0  0  0
  -20.7704   42.7105  -22.6468 C   0  0  0  0  0  0  0  0  0  0  0  0
  -21.5417   41.1733  -22.8897 Cl  0  0  0  0  0  0  0  0  0  0  0  0
  -19.5759   42.7481  -21.9162 C   0  0  0  0  0  0  0  0  0  0  0  0
  -19.0657   41.5490  -21.3987 N   0  0  0  0  0  0  0  0  0  0  0  0
  -17.9253   40.8206  -21.8631 C   0  0  0  0  0  0  0  0  0  0  0  0
  -18.2376   39.4068  -22.1830 C   0  0  0  0  0  0  0  0  0  0  0  0
  -19.3103   38.7503  -21.4147 C   0  0  0  0  0  0  0  0  0  0  0  0
  -20.1647   37.8162  -22.2686 C   0  0  0  0  0  0  0  0  0  0  0  0
  -19.4533   36.5047  -22.3358 C   0  0  0  0  0  0  0  0  0  0  0  0
  -18.8862   36.4190  -20.9968 N   0  0  0  0  0  0  0  0  0  0  0  0
  -18.6604   37.7294  -20.5073 C   0  0  0  0  0  0  0  0  0  0  0  0
  -18.0178   38.0251  -19.4734 O   0  0  0  0  0  0  0  0  0  0  0  0
  -20.1652   39.5873  -20.5435 C   0  0  0  0  0  0  0  0  0  0  0  0
  -19.7221   40.9582  -20.2352 C   0  0  0  0  0  0  0  0  0  0  0  0
  -16.5143   44.4259  -21.5526 C   0  0  0  0  0  0  0  0  0  0  0  0
  -15.3273   44.5493  -20.8158 C   0  0  0  0  0  0  0  0  0  0  0  0
  -12.8674   44.8310  -19.1646 C   0  0  0  0  0  0  0  0  0  0  0  0
  -11.9951   44.8155  -18.1710 N   0  0  0  0  0  0  0  0  0  0  0  0
  1  2  1  0
  2  3  1  0
  3  4  2  0
  4  5  1  0
  5  6  2  0
  6  7  1  0
  7  8  2  0
  8  9  1  0
  9 10  2  0
 10 11  1  0
 11 12  2  0
 12 13  1  0
 13 14  1  0
 13 15  2  0
 15 16  1  0
 16 17  1  0
 17 18  1  0
 18 19  1  0
 19 20  1  0
 20 21  1  0
 21 22  1  0
 22 23  1  0
 23 24  2  0
 19 25  1  0
 25 26  1  0
  8 27  1  0
 27 28  2  0
  4 29  1  0
 29 30  2  0
 30  2  1  0
 28  5  1  0
 15  9  1  0
 26 16  1  0
 23 19  1  0
M  END
$$$$
