
     RDKit          3D

 20 22  0  0  0  0  0  0  0  0999 V2000
  -16.0561   47.3142  -18.9087 N   0  0  0  0  0  0  0  0  0  0  0  0
  -15.9276   45.9341  -19.1947 C   0  0  0  0  0  0  0  0  0  0  0  0
  -14.7295   45.3052  -19.0122 N   0  0  0  0  0  0  0  0  0  0  0  0
  -14.5568   43.9980  -19.2690 C   0  0  0  0  0  0  0  0  0  0  0  0
  -13.1158   43.2952  -19.0370 S   0  0  0  0  0  0  0  0  0  0  0  0
  -15.6251   43.2609  -19.7338 C   0  0  0  0  0  0  0  0  0  0  0  0
  -15.8131   41.9697  -20.0860 N   0  0  0  0  0  0  0  0  0  0  0  0
  -17.0820   41.7653  -20.4820 C   0  0  0  0  0  0  0  0  0  0  0  0
  -17.7350   42.9350  -20.3889 N   0  0  0  0  0  0  0  0  0  0  0  0
  -19.1275   43.1700  -20.7166 C   0  0  0  0  0  0  0  0  0  0  0  0
  -19.8136   42.0125  -20.9491 O   0  0  0  0  0  0  0  0  0  0  0  0
  -20.1990   41.9418  -22.2556 C   0  0  0  0  0  0  0  0  0  0  0  0
  -21.5810   41.2980  -22.3815 C   0  0  0  0  0  0  0  0  0  0  0  0
  -21.4432   39.9249  -22.5698 O   0  0  0  0  0  0  0  0  0  0  0  0
  -20.1581   43.2960  -22.8595 C   0  0  0  0  0  0  0  0  0  0  0  0
  -19.5302   43.3140  -24.1093 O   0  0  0  0  0  0  0  0  0  0  0  0
  -19.2761   44.0714  -21.9148 C   0  0  0  0  0  0  0  0  0  0  0  0
  -18.0074   44.2818  -22.4435 O   0  0  0  0  0  0  0  0  0  0  0  0
  -16.8582   43.8666  -19.9314 C   0  0  0  0  0  0  0  0  0  0  0  0
  -16.9393   45.1773  -19.6486 N   0  0  0  0  0  0  0  0  0  0  0  0
  1  2  1  0
  2  3  2  0
  3  4  1  0
  4  5  2  0
  4  6  1  0
  6  7  1  0
  7  8  2  0
  8  9  1  0
  9 10  1  0
 10 11  1  0
 11 12  1  0
 12 13  1  0
 13 14  1  0
 12 15  1  0
 15 16  1  0
 15 17  1  0
 17 18  1  0
  9 19  1  0
 19 20  1  0
 20  2  1  0
 19  6  2  0
 17 10  1  0
M  END
$$$$
