
     RDKit          3D

 37 41  0  0  0  0  0  0  0  0999 V2000
  -13.6298   19.8345  -44.6328 C   0  0  0  0  0  0  0  0  0  0  0  0
  -14.6054   20.2637  -43.7113 O   0  0  0  0  0  0  0  0  0  0  0  0
  -14.7706   19.6020  -42.5030 C   0  0  0  0  0  0  0  0  0  0  0  0
  -13.6948   19.2211  -41.7341 C   0  0  0  0  0  0  0  0  0  0  0  0
  -13.8436   18.5614  -40.5292 C   0  0  0  0  0  0  0  0  0  0  0  0
  -12.7720   18.2131  -39.7844 N   0  0  0  0  0  0  0  0  0  0  0  0
  -12.9494   17.5873  -38.6091 C   0  0  0  0  0  0  0  0  0  0  0  0
  -14.2127   17.2898  -38.1437 C   0  0  0  0  0  0  0  0  0  0  0  0
  -15.3251   17.6483  -38.9130 C   0  0  0  0  0  0  0  0  0  0  0  0
  -16.5725   17.3380  -38.4238 O   0  0  0  0  0  0  0  0  0  0  0  0
  -16.7419   17.2751  -37.0324 C   0  0  0  0  0  0  0  0  0  0  0  0
  -16.8142   18.4063  -36.2378 C   0  0  0  0  0  0  0  0  0  0  0  0
  -16.9852   18.2898  -34.8527 C   0  0  0  0  0  0  0  0  0  0  0  0
  -17.0854   17.0594  -34.2485 C   0  0  0  0  0  0  0  0  0  0  0  0
  -17.2631   17.0094  -32.8356 N   0  0  0  0  0  0  0  0  0  0  0  0
  -16.1867   16.9710  -31.9545 C   0  0  0  0  0  0  0  0  0  0  0  0
  -15.0263   17.0439  -32.5367 O   0  0  0  0  0  0  0  0  0  0  0  0
  -16.1586   16.8730  -30.4933 C   0  0  0  0  0  0  0  0  0  0  0  0
  -16.0295   15.5485  -29.8687 C   0  0  0  0  0  0  0  0  0  0  0  0
  -16.2368   14.5563  -30.6505 O   0  0  0  0  0  0  0  0  0  0  0  0
  -15.7223   15.2770  -28.5484 N   0  0  0  0  0  0  0  0  0  0  0  0
  -15.3841   14.0085  -27.9682 C   0  0  0  0  0  0  0  0  0  0  0  0
  -14.1310   13.8463  -27.3701 C   0  0  0  0  0  0  0  0  0  0  0  0
  -13.7182   12.6751  -26.7938 C   0  0  0  0  0  0  0  0  0  0  0  0
  -14.5567   11.5951  -26.7904 C   0  0  0  0  0  0  0  0  0  0  0  0
  -14.1748   10.4097  -26.2236 F   0  0  0  0  0  0  0  0  0  0  0  0
  -15.7988   11.7158  -27.3692 C   0  0  0  0  0  0  0  0  0  0  0  0
  -16.2030   12.9320  -27.9575 C   0  0  0  0  0  0  0  0  0  0  0  0
  -16.7107   18.0093  -29.6834 C   0  0  0  0  0  0  0  0  0  0  0  0
  -15.2351   17.9351  -29.7895 C   0  0  0  0  0  0  0  0  0  0  0  0
  -17.0109   15.9501  -35.0548 C   0  0  0  0  0  0  0  0  0  0  0  0
  -16.8418   16.0436  -36.4274 C   0  0  0  0  0  0  0  0  0  0  0  0
  -15.1520   18.2870  -40.1091 C   0  0  0  0  0  0  0  0  0  0  0  0
  -16.2364   18.6625  -40.8670 C   0  0  0  0  0  0  0  0  0  0  0  0
  -16.0490   19.3310  -42.0850 C   0  0  0  0  0  0  0  0  0  0  0  0
  -17.1131   19.7121  -42.8528 O   0  0  0  0  0  0  0  0  0  0  0  0
  -18.0089   20.7497  -42.6372 C   0  0  0  0  0  0  0  0  0  0  0  0
  1  2  1  0
  2  3  1  0
  3  4  2  0
  4  5  1  0
  5  6  2  0
  6  7  1  0
  7  8  2  0
  8  9  1  0
  9 10  1  0
 10 11  1  0
 11 12  2  0
 12 13  1  0
 13 14  2  0
 14 15  1  0
 15 16  1  0
 16 17  2  0
 16 18  1  0
 18 19  1  0
 19 20  2  0
 19 21  1  0
 21 22  1  0
 22 23  2  0
 23 24  1  0
 24 25  2  0
 25 26  1  0
 25 27  1  0
 27 28  2  0
 18 29  1  0
 29 30  1  0
 14 31  1  0
 31 32  2  0
  9 33  2  0
 33 34  1  0
 34 35  2  0
 35 36  1  0
 36 37  1  0
 35  3  1  0
 33  5  1  0
 32 11  1  0
 30 18  1  0
 28 22  1  0
M  END
$$$$
