
     RDKit          3D

 18 15  0  0  0  0  0  0  0  0999 V2000
  -18.7806   37.4697  -23.0242 Cl  0  0  0  0  0  0  0  0  0  0  0  0
  -18.0116   40.5003  -22.3667 N   0  0  0  0  0  0  0  0  0  0  0  0
  -18.9163   40.0897  -23.2082 C   0  0  0  0  0  0  0  0  0  0  0  0
  -19.6569   41.0168  -23.9544 N   0  0  0  0  0  0  0  0  0  0  0  0
  -19.1662   38.7060  -23.3828 N   0  0  0  0  0  0  0  0  0  0  0  0
  -18.3944   37.7948  -22.6077 C   0  0  0  0  0  0  0  0  0  0  0  0
  -17.5235   38.2141  -21.7988 O   0  0  0  0  0  0  0  0  0  0  0  0
  -18.5887   36.3470  -22.7266 C   0  0  0  0  0  0  0  0  0  0  0  0
  -19.4963   35.8171  -23.5653 N   0  0  0  0  0  0  0  0  0  0  0  0
  -19.6873   34.4878  -23.6864 C   0  0  0  0  0  0  0  0  0  0  0  0
  -20.8838   33.8485  -24.7948 Cl  0  0  0  0  0  0  0  0  0  0  0  0
  -18.9392   33.6054  -22.9352 C   0  0  0  0  0  0  0  0  0  0  0  0
  -19.1301   32.1955  -23.0525 N   0  0  0  0  0  0  0  0  0  0  0  0
  -18.0308   34.1336  -22.0956 N   0  0  0  0  0  0  0  0  0  0  0  0
  -17.8407   35.4663  -21.9755 C   0  0  0  0  0  0  0  0  0  0  0  0
  -16.8709   36.0032  -21.0781 N   0  0  0  0  0  0  0  0  0  0  0  0
  -19.0623   36.8109  -22.7016 O   0  0  0  0  0  0  0  0  0  0  0  0
  -19.0453   36.8067  -22.7127 O   0  0  0  0  0  0  0  0  0  0  0  0
  2  3  2  0
  3  4  1  0
  3  5  1  0
  5  6  1  0
  6  7  2  0
  6  8  1  0
  8  9  2  0
  9 10  1  0
 10 11  1  0
 10 12  2  0
 12 13  1  0
 12 14  1  0
 14 15  2  0
 15 16  1  0
 15  8  1  0
M  END
$$$$
