
     RDKit          3D

 39 43  0  0  0  0  0  0  0  0999 V2000
  -14.5302   47.2608  -18.2632 C   0  0  0  0  0  0  0  0  0  0  0  0
  -15.2724   46.0543  -18.7665 C   0  0  0  0  0  0  0  0  0  0  0  0
  -14.6001   45.1204  -19.4659 C   0  0  0  0  0  0  0  0  0  0  0  0
  -15.2894   44.1204  -20.1065 C   0  0  0  0  0  0  0  0  0  0  0  0
  -16.6993   44.0899  -19.9992 C   0  0  0  0  0  0  0  0  0  0  0  0
  -17.3821   43.0839  -20.7133 C   0  0  0  0  0  0  0  0  0  0  0  0
  -18.3828   42.5401  -20.1539 O   0  0  0  0  0  0  0  0  0  0  0  0
  -16.9696   42.6397  -22.0370 N   0  0  0  0  0  0  0  0  0  0  0  0
  -17.7410   41.4925  -22.4466 C   0  0  0  0  0  0  0  0  0  0  0  0
  -18.8687   41.8090  -23.2186 C   0  0  0  0  0  0  0  0  0  0  0  0
  -19.5590   40.8063  -23.8140 C   0  0  0  0  0  0  0  0  0  0  0  0
  -19.1147   39.4951  -23.6248 C   0  0  0  0  0  0  0  0  0  0  0  0
  -20.0580   38.4935  -24.2141 C   0  0  0  0  0  0  0  0  0  0  0  0
  -21.1203   39.2151  -24.7959 N   0  0  0  0  0  0  0  0  0  0  0  0
  -22.4592   39.0357  -24.4968 C   0  0  0  0  0  0  0  0  0  0  0  0
  -23.1173   38.0447  -25.4737 C   0  0  0  0  0  0  0  0  0  0  0  0
  -22.9118   38.5598  -26.7903 N   0  0  0  0  0  0  0  0  0  0  0  0
  -23.8036   39.6544  -27.1233 C   0  0  0  0  0  0  0  0  0  0  0  0
  -21.5560   38.8190  -27.1567 C   0  0  0  0  0  0  0  0  0  0  0  0
  -20.8311   39.6788  -26.1414 C   0  0  0  0  0  0  0  0  0  0  0  0
  -18.0519   39.1553  -22.8923 C   0  0  0  0  0  0  0  0  0  0  0  0
  -17.5162   37.8001  -22.8391 C   0  0  0  0  0  0  0  0  0  0  0  0
  -17.2281   37.3917  -24.1542 F   0  0  0  0  0  0  0  0  0  0  0  0
  -18.5722   36.8951  -22.4679 F   0  0  0  0  0  0  0  0  0  0  0  0
  -16.4270   37.5377  -22.1177 F   0  0  0  0  0  0  0  0  0  0  0  0
  -17.3246   40.2151  -22.2675 C   0  0  0  0  0  0  0  0  0  0  0  0
  -17.3508   45.0251  -19.2605 C   0  0  0  0  0  0  0  0  0  0  0  0
  -16.6213   46.0513  -18.6341 C   0  0  0  0  0  0  0  0  0  0  0  0
  -17.3199   46.9863  -17.8856 C   0  0  0  0  0  0  0  0  0  0  0  0
  -18.0782   48.0424  -17.0498 C   0  0  0  0  0  0  0  0  0  0  0  0
  -18.5630   48.7036  -16.5167 C   0  0  0  0  0  0  0  0  0  0  0  0
  -17.9905   49.0018  -15.0213 C   0  0  0  0  0  0  0  0  0  0  0  0
  -18.2820   50.1427  -14.6301 N   0  0  0  0  0  0  0  0  0  0  0  0
  -18.9590   50.7779  -15.5415 C   0  0  0  0  0  0  0  0  0  0  0  0
  -19.3510   52.1124  -15.5293 C   0  0  0  0  0  0  0  0  0  0  0  0
  -19.9709   52.5992  -16.6414 C   0  0  0  0  0  0  0  0  0  0  0  0
  -20.1950   51.7684  -17.7157 C   0  0  0  0  0  0  0  0  0  0  0  0
  -19.7804   50.4612  -17.6922 N   0  0  0  0  0  0  0  0  0  0  0  0
  -19.1846   50.0392  -16.6325 N   0  0  0  0  0  0  0  0  0  0  0  0
  1  2  1  0
  2  3  2  0
  3  4  1  0
  4  5  2  0
  5  6  1  0
  6  7  2  0
  6  8  1  0
  8  9  1  0
  9 10  2  0
 10 11  1  0
 11 12  2  0
 12 13  1  0
 13 14  1  0
 14 15  1  0
 15 16  1  0
 16 17  1  0
 17 18  1  0
 17 19  1  0
 19 20  1  0
 12 21  1  0
 21 22  1  0
 22 23  1  0
 22 24  1  0
 22 25  1  0
 21 26  2  0
  5 27  1  0
 27 28  2  0
 28 29  1  0
 29 30  3  0
 30 31  1  0
 31 32  2  0
 32 33  1  0
 33 34  2  0
 34 35  1  0
 35 36  2  0
 36 37  1  0
 37 38  2  0
 38 39  1  0
 28  2  1  0
 39 31  1  0
 26  9  1  0
 39 34  1  0
 20 14  1  0
M  END
$$$$
