
     RDKit          3D

 36 39  0  0  0  0  0  0  0  0999 V2000
  -11.0856   18.5054  -42.5507 C   0  0  0  0  0  0  0  0  0  0  0  0
  -11.7436   17.9049  -41.3362 C   0  0  0  0  0  0  0  0  0  0  0  0
  -13.1169   18.1164  -41.2433 O   0  0  0  0  0  0  0  0  0  0  0  0
  -13.8533   17.7831  -40.1258 C   0  0  0  0  0  0  0  0  0  0  0  0
  -13.3660   16.8614  -39.2020 C   0  0  0  0  0  0  0  0  0  0  0  0
  -14.1247   16.5635  -38.1190 C   0  0  0  0  0  0  0  0  0  0  0  0
  -15.3255   17.1053  -37.8804 N   0  0  0  0  0  0  0  0  0  0  0  0
  -16.0939   16.7589  -36.7185 C   0  0  0  0  0  0  0  0  0  0  0  0
  -16.5758   15.4806  -36.5262 C   0  0  0  0  0  0  0  0  0  0  0  0
  -17.3194   15.1557  -35.3967 C   0  0  0  0  0  0  0  0  0  0  0  0
  -17.5995   16.0993  -34.4324 C   0  0  0  0  0  0  0  0  0  0  0  0
  -18.3302   15.7683  -33.3284 F   0  0  0  0  0  0  0  0  0  0  0  0
  -17.1171   17.3775  -34.6256 C   0  0  0  0  0  0  0  0  0  0  0  0
  -16.3791   17.6950  -35.7492 C   0  0  0  0  0  0  0  0  0  0  0  0
  -15.7879   17.9824  -38.7615 C   0  0  0  0  0  0  0  0  0  0  0  0
  -16.9174   18.5033  -38.5537 O   0  0  0  0  0  0  0  0  0  0  0  0
  -15.0842   18.3637  -39.9183 C   0  0  0  0  0  0  0  0  0  0  0  0
  -15.6762   19.3308  -40.8186 C   0  0  0  0  0  0  0  0  0  0  0  0
  -14.9028   20.2757  -41.2405 O   0  0  0  0  0  0  0  0  0  0  0  0
  -16.9795   19.3939  -41.3056 N   0  0  0  0  0  0  0  0  0  0  0  0
  -17.4826   20.5018  -42.0648 C   0  0  0  0  0  0  0  0  0  0  0  0
  -18.7445   20.3879  -42.5950 C   0  0  0  0  0  0  0  0  0  0  0  0
  -19.2958   21.4201  -43.3405 C   0  0  0  0  0  0  0  0  0  0  0  0
  -18.5817   22.5738  -43.5577 C   0  0  0  0  0  0  0  0  0  0  0  0
  -19.1881   23.5763  -44.3146 O   0  0  0  0  0  0  0  0  0  0  0  0
  -20.1919   24.3877  -43.8595 C   0  0  0  0  0  0  0  0  0  0  0  0
  -19.9800   25.2807  -42.8121 C   0  0  0  0  0  0  0  0  0  0  0  0
  -21.0240   26.0789  -42.3879 C   0  0  0  0  0  0  0  0  0  0  0  0
  -22.2335   25.9853  -42.9903 N   0  0  0  0  0  0  0  0  0  0  0  0
  -22.4802   25.1419  -43.9987 C   0  0  0  0  0  0  0  0  0  0  0  0
  -23.7808   25.0939  -44.5899 N   0  0  0  0  0  0  0  0  0  0  0  0
  -21.4417   24.3315  -44.4385 C   0  0  0  0  0  0  0  0  0  0  0  0
  -21.8106   23.2355  -45.7690 Cl  0  0  0  0  0  0  0  0  0  0  0  0
  -17.3273   22.6969  -43.0353 C   0  0  0  0  0  0  0  0  0  0  0  0
  -16.6243   23.8397  -43.2524 F   0  0  0  0  0  0  0  0  0  0  0  0
  -16.7981   21.6631  -42.2993 C   0  0  0  0  0  0  0  0  0  0  0  0
  1  2  1  0
  2  3  1  0
  3  4  1  0
  4  5  1  0
  5  6  2  0
  6  7  1  0
  7  8  1  0
  8  9  2  0
  9 10  1  0
 10 11  2  0
 11 12  1  0
 11 13  1  0
 13 14  2  0
  7 15  1  0
 15 16  2  0
 15 17  1  0
 17 18  1  0
 18 19  2  0
 18 20  1  0
 20 21  1  0
 21 22  2  0
 22 23  1  0
 23 24  2  0
 24 25  1  0
 25 26  1  0
 26 27  2  0
 27 28  1  0
 28 29  2  0
 29 30  1  0
 30 31  1  0
 30 32  2  0
 32 33  1  0
 24 34  1  0
 34 35  1  0
 34 36  2  0
 17  4  2  0
 36 21  1  0
 14  8  1  0
 32 26  1  0
M  END
$$$$
