
     RDKit          3D

 24 27  0  0  0  0  0  0  0  0999 V2000
    8.6541   13.8871  -39.6161 C   0  0  0  0  0  0  0  0  0  0  0  0
    8.0007   13.3437  -40.7243 O   0  0  0  0  0  0  0  0  0  0  0  0
    6.7978   12.6874  -40.5642 C   0  0  0  0  0  0  0  0  0  0  0  0
    6.6478   11.7050  -39.6183 C   0  0  0  0  0  0  0  0  0  0  0  0
    5.4651   11.0574  -39.4586 C   0  0  0  0  0  0  0  0  0  0  0  0
    4.3406   11.3467  -40.2369 C   0  0  0  0  0  0  0  0  0  0  0  0
    3.1284   10.6110  -39.9993 C   0  0  0  0  0  0  0  0  0  0  0  0
    2.0183   11.2018  -39.9994 O   0  0  0  0  0  0  0  0  0  0  0  0
    3.1162    9.2162  -39.7581 N   0  0  0  0  0  0  0  0  0  0  0  0
    1.8592    8.5364  -39.4712 C   0  0  0  0  0  0  0  0  0  0  0  0
    1.3735    7.5429  -39.1637 N   0  0  0  0  0  0  0  0  0  0  0  0
    0.1218    7.2110  -38.9708 C   0  0  0  0  0  0  0  0  0  0  0  0
   -0.5091    6.0147  -38.5967 C   0  0  0  0  0  0  0  0  0  0  0  0
   -1.8469    5.8885  -38.4521 C   0  0  0  0  0  0  0  0  0  0  0  0
   -2.7287    6.9645  -38.6687 C   0  0  0  0  0  0  0  0  0  0  0  0
   -4.0312    7.0473  -38.5832 N   0  0  0  0  0  0  0  0  0  0  0  0
   -4.7451    7.9232  -38.7599 C   0  0  0  0  0  0  0  0  0  0  0  0
   -6.1795    8.2896  -38.7398 C   0  0  0  0  0  0  0  0  0  0  0  0
   -3.4766    9.2626  -39.2253 S   0  0  0  0  0  0  0  0  0  0  0  0
   -2.1039    8.1483  -39.0389 C   0  0  0  0  0  0  0  0  0  0  0  0
   -0.7699    8.2716  -39.1825 C   0  0  0  0  0  0  0  0  0  0  0  0
    0.2991    9.6120  -39.6316 S   0  0  0  0  0  0  0  0  0  0  0  0
    4.4852   12.3237  -41.1796 C   0  0  0  0  0  0  0  0  0  0  0  0
    5.6934   12.9776  -41.3348 C   0  0  0  0  0  0  0  0  0  0  0  0
  1  2  1  0
  2  3  1  0
  3  4  2  0
  4  5  1  0
  5  6  2  0
  6  7  1  0
  7  8  2  0
  7  9  1  0
  9 10  1  0
 10 11  2  0
 11 12  1  0
 12 13  2  0
 13 14  1  0
 14 15  2  0
 15 16  1  0
 16 17  2  0
 17 18  1  0
 17 19  1  0
 19 20  1  0
 20 21  2  0
 21 22  1  0
  6 23  1  0
 23 24  2  0
 24  3  1  0
 22 10  1  0
 21 12  1  0
 20 15  1  0
M  END
$$$$
