
     RDKit          3D

 56 59  0  0  0  0  0  0  0  0999 V2000
  -26.9536    7.1493  -27.4889 C   0  0  0  0  0  0  0  0  0  0  0  0
  -26.2168    7.8951  -26.4100 C   0  0  0  0  0  0  0  0  0  0  0  0
  -27.1828    8.3448  -25.2695 C   0  0  2  0  0  0  0  0  0  0  0  0
  -27.7239    7.1511  -24.5282 C   0  0  0  0  0  0  0  0  0  0  0  0
  -28.3727    6.8682  -23.4533 C   0  0  0  0  0  0  0  0  0  0  0  0
  -28.7996    5.4701  -22.9305 C   0  0  0  0  0  0  0  0  0  0  0  0
  -28.9955    7.7203  -22.3434 C   0  0  0  0  0  0  0  0  0  0  0  0
  -30.5164    7.4305  -22.2787 C   0  0  2  0  0  0  0  0  0  0  0  0
  -31.0869    7.4492  -23.6777 C   0  0  0  0  0  0  0  0  0  0  0  0
  -31.1812    8.5710  -21.5402 C   0  0  0  0  0  0  0  0  0  0  0  0
  -31.1849    8.4510  -20.0610 C   0  0  2  0  0  0  0  0  0  0  0  0
  -32.3583    7.7713  -19.6649 O   0  0  0  0  0  0  0  0  0  0  0  0
  -32.7082    8.0771  -18.3626 C   0  0  0  0  0  0  0  0  0  0  0  0
  -31.1666    9.8390  -19.4622 C   0  0  1  0  0  0  0  0  0  0  0  0
  -30.1014   10.5112  -19.9644 O   0  0  0  0  0  0  0  0  0  0  0  0
  -30.1322   11.8983  -19.7496 C   0  0  1  0  0  0  0  0  0  0  0  0
  -30.3914   11.9890  -18.3436 O   0  0  0  0  0  0  0  0  0  0  0  0
  -28.8348   12.4242  -20.1299 C   0  0  0  0  0  0  0  0  0  0  0  0
  -28.0462   11.4981  -20.6631 O   0  0  0  0  0  0  0  0  0  0  0  0
  -28.1961   13.7063  -20.0592 C   0  0  0  0  0  0  0  0  0  0  0  0
  -27.1985   13.8121  -19.2104 O   0  0  0  0  0  0  0  0  0  0  0  0
  -28.4268   14.9270  -20.7494 N   0  0  0  0  0  0  0  0  0  0  0  0
  -27.5901   16.1033  -20.3503 C   0  0  0  0  0  0  0  0  0  0  0  0
  -28.5554   17.2070  -19.9867 C   0  0  0  0  0  0  0  0  0  0  0  0
  -29.3865   17.6316  -21.1808 C   0  0  0  0  0  0  0  0  0  0  0  0
  -29.1258   16.6497  -22.2719 C   0  0  0  0  0  0  0  0  0  0  0  0
  -29.3331   15.2174  -21.7947 C   0  0  1  0  0  0  0  0  0  0  0  0
  -29.2546   14.3843  -23.0137 C   0  0  0  0  0  0  0  0  0  0  0  0
  -30.3213   14.5480  -23.7555 O   0  0  0  0  0  0  0  0  0  0  0  0
  -28.3662   13.5519  -23.4761 O   0  0  0  0  0  0  0  0  0  0  0  0
  -27.1458   13.2137  -23.8491 C   0  0  2  0  0  0  0  0  0  0  0  0
  -26.3401   14.2149  -24.6567 C   0  0  0  0  0  0  0  0  0  0  0  0
  -26.7397   14.4499  -26.0597 C   0  0  0  0  0  0  0  0  0  0  0  0
  -25.3448   14.8745  -24.1382 C   0  0  0  0  0  0  0  0  0  0  0  0
  -24.1193   14.4174  -23.5094 C   0  0  2  0  0  0  0  0  0  0  0  0
  -24.3988   13.1841  -22.6279 C   0  0  0  0  0  0  0  0  0  0  0  0
  -23.5652   13.2809  -21.4035 C   0  0  0  0  0  0  0  0  0  0  0  0
  -22.0972   13.4799  -21.6953 C   0  0  1  0  0  0  0  0  0  0  0  0
  -21.5321   12.2902  -22.0897 O   0  0  0  0  0  0  0  0  0  0  0  0
  -21.8436   14.5324  -22.7151 C   0  0  2  0  0  0  0  0  0  0  0  0
  -20.8263   15.3919  -22.4098 O   0  0  0  0  0  0  0  0  0  0  0  0
  -19.7956   14.8292  -21.6856 C   0  0  0  0  0  0  0  0  0  0  0  0
  -23.1924   15.3343  -22.8413 C   0  0  0  0  0  0  0  0  0  0  0  0
  -27.2572   11.9799  -24.7792 C   0  0  2  0  0  0  0  0  0  0  0  0
  -27.6860   12.4172  -26.1503 C   0  0  0  0  0  0  0  0  0  0  0  0
  -28.2756   11.0113  -24.2294 C   0  0  1  0  0  0  0  0  0  0  0  0
  -29.2460   11.6559  -23.4259 O   0  0  0  0  0  0  0  0  0  0  0  0
  -28.9914   10.2532  -25.3119 C   0  0  0  0  0  0  0  0  0  0  0  0
  -28.2286    9.1706  -25.9269 C   0  0  0  0  0  0  0  0  0  0  0  0
  -28.5053    8.9417  -27.1235 O   0  0  0  0  0  0  0  0  0  0  0  0
  -31.2685   12.5578  -20.4064 C   0  0  2  0  0  0  0  0  0  0  0  0
  -31.7690   13.6994  -19.5053 C   0  0  0  0  0  0  0  0  0  0  0  0
  -32.4804   11.6543  -20.5811 C   0  0  0  0  0  0  0  0  0  0  0  0
  -32.4808   10.5456  -19.5726 C   0  0  2  0  0  0  0  0  0  0  0  0
  -32.9650   10.9643  -18.3413 O   0  0  0  0  0  0  0  0  0  0  0  0
  -34.0446   10.1715  -17.9577 C   0  0  0  0  0  0  0  0  0  0  0  0
  1  2  1  0
  3  2  1  6
  3  4  1  0
  4  5  2  0
  5  6  1  0
  5  7  1  0
  7  8  1  0
  8  9  1  6
  8 10  1  0
 10 11  1  0
 11 12  1  6
 12 13  1  0
 11 14  1  0
 14 15  1  6
 15 16  1  0
 16 17  1  1
 16 18  1  0
 18 19  2  0
 18 20  1  0
 20 21  2  0
 20 22  1  0
 22 23  1  0
 23 24  1  0
 24 25  1  0
 25 26  1  0
 27 26  1  6
 27 28  1  0
 28 29  2  0
 28 30  1  0
 30 31  1  0
 31 32  1  6
 32 33  1  0
 32 34  2  0
 35 34  1  1
 35 36  1  0
 36 37  1  0
 37 38  1  0
 38 39  1  6
 38 40  1  0
 40 41  1  1
 41 42  1  0
 40 43  1  0
 31 44  1  0
 44 45  1  6
 44 46  1  0
 46 47  1  6
 46 48  1  0
 48 49  1  0
 49 50  2  0
 16 51  1  0
 51 52  1  1
 51 53  1  0
 53 54  1  0
 54 55  1  1
 55 56  1  0
 49  3  1  0
 54 14  1  0
 27 22  1  0
 43 35  1  0
M  END
$$$$
