
     RDKit          3D

 22 25  0  0  0  0  0  0  0  0999 V2000
  -17.4979   38.4382  -22.7693 C   0  0  0  0  0  0  0  0  0  0  0  0
  -18.3601   39.0548  -22.1900 C   0  0  0  0  0  0  0  0  0  0  0  0
  -19.3906   39.8225  -21.4923 C   0  0  0  0  0  0  0  0  0  0  0  0
  -20.2922   39.0331  -20.8253 O   0  0  0  0  0  0  0  0  0  0  0  0
  -20.0615   40.6945  -22.5641 C   0  0  0  0  0  0  0  0  0  0  0  0
  -19.1730   41.9276  -22.6971 C   0  0  0  0  0  0  0  0  0  0  0  0
  -18.0721   41.6650  -21.7610 C   0  0  0  0  0  0  0  0  0  0  0  0
  -17.2505   42.7791  -21.2976 C   0  0  0  0  0  0  0  0  0  0  0  0
  -17.7755   44.1230  -21.8273 C   0  0  0  0  0  0  0  0  0  0  0  0
  -16.6423   45.0939  -21.6303 C   0  0  0  0  0  0  0  0  0  0  0  0
  -16.0357   45.0516  -20.2802 C   0  0  0  0  0  0  0  0  0  0  0  0
  -15.5849   46.2348  -19.8292 C   0  0  0  0  0  0  0  0  0  0  0  0
  -14.9803   46.2541  -18.5143 C   0  0  0  0  0  0  0  0  0  0  0  0
  -14.1789   47.1731  -18.2071 O   0  0  0  0  0  0  0  0  0  0  0  0
  -15.2805   45.2261  -17.5306 C   0  0  0  0  0  0  0  0  0  0  0  0
  -15.9257   43.9869  -18.0210 C   0  0  0  0  0  0  0  0  0  0  0  0
  -15.9404   43.8068  -19.5208 C   0  0  0  0  0  0  0  0  0  0  0  0
  -17.1303   42.9110  -19.8123 C   0  0  0  0  0  0  0  0  0  0  0  0
  -17.0467   41.6133  -19.0764 C   0  0  0  0  0  0  0  0  0  0  0  0
  -17.6995   40.4470  -19.7293 C   0  0  0  0  0  0  0  0  0  0  0  0
  -18.7780   40.9061  -20.6337 C   0  0  0  0  0  0  0  0  0  0  0  0
  -19.8589   41.6705  -19.9807 C   0  0  0  0  0  0  0  0  0  0  0  0
  1  2  3  0
  2  3  1  0
  3  4  1  0
  3  5  1  0
  5  6  1  0
  6  7  1  0
  7  8  1  0
  8  9  1  0
  9 10  1  0
 10 11  1  0
 11 12  2  0
 12 13  1  0
 13 14  2  0
 13 15  1  0
 15 16  1  0
 16 17  1  0
 17 18  1  0
 18 19  1  0
 19 20  1  0
 20 21  1  0
 21 22  1  0
 21  3  1  0
 21  7  1  0
 18  8  1  0
 17 11  1  0
M  END
$$$$
