
     RDKit          3D

 32 34  0  0  0  0  0  0  0  0999 V2000
  -16.0990   16.7799  -34.1621 C   0  0  0  0  0  0  0  0  0  0  0  0
  -15.7943   18.1381  -34.7059 C   0  0  0  0  0  0  0  0  0  0  0  0
  -16.6048   19.1305  -33.8522 C   0  0  0  0  0  0  0  0  0  0  0  0
  -16.2893   18.2603  -36.1121 C   0  0  0  0  0  0  0  0  0  0  0  0
  -17.4180   18.9755  -36.4490 C   0  0  0  0  0  0  0  0  0  0  0  0
  -17.8509   19.0770  -37.7514 C   0  0  0  0  0  0  0  0  0  0  0  0
  -17.1513   18.4494  -38.7906 C   0  0  0  0  0  0  0  0  0  0  0  0
  -16.0372   17.7421  -38.4667 C   0  0  0  0  0  0  0  0  0  0  0  0
  -15.6089   17.6447  -37.1603 C   0  0  0  0  0  0  0  0  0  0  0  0
  -15.5579   17.2546  -39.6936 C   0  0  0  0  0  0  0  0  0  0  0  0
  -14.0806   16.2784  -39.7628 S   0  0  0  0  0  0  0  0  0  0  0  0
  -12.5740   17.2847  -39.7960 C   0  0  0  0  0  0  0  0  0  0  0  0
  -11.3354   16.4148  -39.6037 C   0  0  0  0  0  0  0  0  0  0  0  0
  -12.4280   17.9317  -41.1640 C   0  0  0  0  0  0  0  0  0  0  0  0
  -12.5723   18.3387  -38.7342 C   0  0  0  0  0  0  0  0  0  0  0  0
  -16.3547   17.6604  -40.7306 C   0  0  0  0  0  0  0  0  0  0  0  0
  -16.2564   17.5529  -42.2022 C   0  0  0  0  0  0  0  0  0  0  0  0
  -15.6815   18.5970  -43.0385 C   0  0  0  0  0  0  0  0  0  0  0  0
  -14.4218   19.2591  -42.5801 C   0  0  0  0  0  0  0  0  0  0  0  0
  -15.0971   17.6215  -44.2708 C   0  0  0  0  0  0  0  0  0  0  0  0
  -16.4919   19.4668  -43.8721 C   0  0  0  0  0  0  0  0  0  0  0  0
  -17.7558   19.1573  -44.0069 O   0  0  0  0  0  0  0  0  0  0  0  0
  -16.1654   20.5938  -44.5640 O   0  0  0  0  0  0  0  0  0  0  0  0
  -17.3546   18.4106  -40.1294 N   0  0  0  0  0  0  0  0  0  0  0  0
  -18.4351   19.0838  -40.7860 C   0  0  0  0  0  0  0  0  0  0  0  0
  -18.1916   20.5284  -40.9633 C   0  0  0  0  0  0  0  0  0  0  0  0
  -18.8332   21.1983  -42.0097 C   0  0  0  0  0  0  0  0  0  0  0  0
  -18.6644   22.5479  -42.2261 C   0  0  0  0  0  0  0  0  0  0  0  0
  -17.8467   23.2781  -41.4037 C   0  0  0  0  0  0  0  0  0  0  0  0
  -17.6382   24.9899  -41.6834 Cl  0  0  0  0  0  0  0  0  0  0  0  0
  -17.2065   22.6318  -40.3680 C   0  0  0  0  0  0  0  0  0  0  0  0
  -17.3730   21.2659  -40.1431 C   0  0  0  0  0  0  0  0  0  0  0  0
  1  2  1  0
  2  3  1  0
  2  4  1  0
  4  5  2  0
  5  6  1  0
  6  7  2  0
  7  8  1  0
  8  9  2  0
  8 10  1  0
 10 11  1  0
 11 12  1  0
 12 13  1  0
 12 14  1  0
 12 15  1  0
 10 16  2  0
 16 17  1  0
 17 18  1  0
 18 19  1  0
 18 20  1  0
 18 21  1  0
 21 22  2  0
 21 23  1  0
 16 24  1  0
 24 25  1  0
 25 26  1  0
 26 27  2  0
 27 28  1  0
 28 29  2  0
 29 30  1  0
 29 31  1  0
 31 32  2  0
  9  4  1  0
 32 26  1  0
 24  7  1  0
M  END
$$$$
