
     RDKit          3D

 25 28  0  0  0  0  0  0  0  0999 V2000
  -17.2941   35.4704  -22.0788 O   0  0  0  0  0  0  0  0  0  0  0  0
  -18.5284   36.0712  -22.2871 C   0  0  0  0  0  0  0  0  0  0  0  0
  -18.6697   37.4035  -22.6431 C   0  0  0  0  0  0  0  0  0  0  0  0
  -19.8965   37.9928  -22.8482 C   0  0  0  0  0  0  0  0  0  0  0  0
  -20.0628   39.3927  -23.2190 C   0  0  0  0  0  0  0  0  0  0  0  0
  -20.6613   39.7824  -24.3792 N   0  0  0  0  0  0  0  0  0  0  0  0
  -20.6661   41.1149  -24.4467 C   0  0  0  0  0  0  0  0  0  0  0  0
  -21.2341   41.8656  -25.5669 C   0  0  0  0  0  0  0  0  0  0  0  0
  -21.6118   41.2481  -26.7396 C   0  0  0  0  0  0  0  0  0  0  0  0
  -22.1448   41.9548  -27.7911 C   0  0  0  0  0  0  0  0  0  0  0  0
  -22.3080   43.3099  -27.6775 C   0  0  0  0  0  0  0  0  0  0  0  0
  -21.9345   43.9350  -26.5123 C   0  0  0  0  0  0  0  0  0  0  0  0
  -21.3928   43.2189  -25.4431 C   0  0  0  0  0  0  0  0  0  0  0  0
  -20.0789   41.5514  -23.3438 N   0  0  0  0  0  0  0  0  0  0  0  0
  -19.6853   40.5235  -22.5467 C   0  0  0  0  0  0  0  0  0  0  0  0
  -19.0177   40.5661  -21.2698 C   0  0  0  0  0  0  0  0  0  0  0  0
  -18.0417   41.5112  -21.0556 C   0  0  0  0  0  0  0  0  0  0  0  0
  -17.3655   41.5900  -19.8301 C   0  0  0  0  0  0  0  0  0  0  0  0
  -17.6829   40.7326  -18.8718 N   0  0  0  0  0  0  0  0  0  0  0  0
  -18.6288   39.7957  -19.0407 C   0  0  0  0  0  0  0  0  0  0  0  0
  -19.2957   39.7104  -20.2345 C   0  0  0  0  0  0  0  0  0  0  0  0
  -21.0135   37.1991  -22.6851 C   0  0  0  0  0  0  0  0  0  0  0  0
  -20.9009   35.8535  -22.3266 C   0  0  0  0  0  0  0  0  0  0  0  0
  -19.6593   35.2847  -22.1264 C   0  0  0  0  0  0  0  0  0  0  0  0
  -19.5141   33.5824  -21.6727 Cl  0  0  0  0  0  0  0  0  0  0  0  0
  1  2  1  0
  2  3  2  0
  3  4  1  0
  4  5  1  0
  5  6  1  0
  6  7  1  0
  7  8  1  0
  8  9  2  0
  9 10  1  0
 10 11  2  0
 11 12  1  0
 12 13  2  0
  7 14  2  0
 14 15  1  0
 15 16  1  0
 16 17  2  0
 17 18  1  0
 18 19  2  0
 19 20  1  0
 20 21  2  0
  4 22  2  0
 22 23  1  0
 23 24  2  0
 24 25  1  0
 24  2  1  0
 15  5  2  0
 21 16  1  0
 13  8  1  0
M  END
$$$$
