
     RDKit          3D

 17 17  0  0  0  0  0  0  0  0999 V2000
  -16.3116   37.7854  -23.0196 C   0  0  0  0  0  0  0  0  0  0  0  0
  -17.5287   36.9534  -22.6404 C   0  0  0  0  0  0  0  0  0  0  0  0
  -18.6792   37.9166  -22.4535 C   0  0  0  0  0  0  0  0  0  0  0  0
  -18.8930   38.1453  -21.0591 N   0  0  0  0  0  0  0  0  0  0  0  0
  -19.1480   39.4782  -20.6180 C   0  0  0  0  0  0  0  0  0  0  0  0
  -19.1698   40.4731  -21.3529 O   0  0  0  0  0  0  0  0  0  0  0  0
  -19.3962   39.6727  -19.2228 N   0  0  0  0  0  0  0  0  0  0  0  0
  -19.6050   41.2527  -18.5703 S   0  0  0  0  0  6  0  0  0  0  0  0
  -19.7843   41.2385  -17.0907 O   0  0  0  0  0  0  0  0  0  0  0  0
  -20.7915   41.9471  -19.1782 O   0  0  0  0  0  0  0  0  0  0  0  0
  -18.1399   42.1654  -18.9380 C   0  0  0  0  0  0  0  0  0  0  0  0
  -16.9628   41.9247  -18.2836 C   0  0  0  0  0  0  0  0  0  0  0  0
  -15.8514   42.6562  -18.6007 C   0  0  0  0  0  0  0  0  0  0  0  0
  -15.8432   43.6474  -19.5645 C   0  0  0  0  0  0  0  0  0  0  0  0
  -14.3749   44.5299  -19.9016 Cl  0  0  0  0  0  0  0  0  0  0  0  0
  -17.0284   43.8946  -20.2281 C   0  0  0  0  0  0  0  0  0  0  0  0
  -18.1477   43.1560  -19.9068 C   0  0  0  0  0  0  0  0  0  0  0  0
  1  2  1  0
  2  3  1  0
  3  4  1  0
  4  5  1  0
  5  6  2  0
  5  7  1  0
  7  8  1  0
  8  9  2  0
  8 10  2  0
  8 11  1  0
 11 12  2  0
 12 13  1  0
 13 14  2  0
 14 15  1  0
 14 16  1  0
 16 17  2  0
 17 11  1  0
M  END
$$$$
