
     RDKit          3D

 25 28  0  0  0  0  0  0  0  0999 V2000
  -16.4484   14.5197  -31.7110 C   0  0  0  0  0  0  0  0  0  0  0  0
  -16.4525   15.7232  -32.6166 C   0  0  0  0  0  0  0  0  0  0  0  0
  -15.3298   16.5226  -32.5763 C   0  0  0  0  0  0  0  0  0  0  0  0
  -15.2921   17.6355  -33.3898 C   0  0  0  0  0  0  0  0  0  0  0  0
  -16.3758   17.8901  -34.1986 C   0  0  0  0  0  0  0  0  0  0  0  0
  -17.5038   17.0686  -34.2253 C   0  0  0  0  0  0  0  0  0  0  0  0
  -18.6256   17.3867  -35.1009 C   0  0  0  0  0  0  0  0  0  0  0  0
  -19.9479   17.3023  -34.7762 N   0  0  0  0  0  0  0  0  0  0  0  0
  -20.6585   17.6800  -35.8471 C   0  0  0  0  0  0  0  0  0  0  0  0
  -22.1182   17.7433  -35.9496 C   0  0  0  0  0  0  0  0  0  0  0  0
  -22.6757   16.5113  -36.6227 C   0  0  0  0  0  0  0  0  0  0  0  0
  -22.5316   18.9368  -36.7922 C   0  0  0  0  0  0  0  0  0  0  0  0
  -22.7538   17.8401  -34.5745 C   0  0  0  0  0  0  0  0  0  0  0  0
  -19.7989   17.9966  -36.8287 N   0  0  0  0  0  0  0  0  0  0  0  0
  -18.5307   17.8226  -36.3895 C   0  0  0  0  0  0  0  0  0  0  0  0
  -17.3505   18.0773  -37.2107 C   0  0  0  0  0  0  0  0  0  0  0  0
  -17.3490   19.0372  -38.2001 C   0  0  0  0  0  0  0  0  0  0  0  0
  -16.2105   19.2430  -38.9532 C   0  0  0  0  0  0  0  0  0  0  0  0
  -15.0533   18.5252  -38.7639 C   0  0  0  0  0  0  0  0  0  0  0  0
  -15.0450   17.5704  -37.7844 C   0  0  0  0  0  0  0  0  0  0  0  0
  -16.1868   17.3600  -37.0249 C   0  0  0  0  0  0  0  0  0  0  0  0
  -13.7886   17.0015  -37.7955 O   0  0  0  0  0  0  0  0  0  0  0  0
  -12.9389   17.7009  -38.6701 C   0  0  0  0  0  0  0  0  0  0  0  0
  -13.8146   18.5478  -39.3758 O   0  0  0  0  0  0  0  0  0  0  0  0
  -17.4856   16.0014  -33.4141 N   0  0  0  0  0  0  0  0  0  0  0  0
  1  2  1  0
  2  3  2  0
  3  4  1  0
  4  5  2  0
  5  6  1  0
  6  7  1  0
  7  8  1  0
  8  9  1  0
  9 10  1  0
 10 11  1  0
 10 12  1  0
 10 13  1  0
  9 14  2  0
 14 15  1  0
 15 16  1  0
 16 17  2  0
 17 18  1  0
 18 19  2  0
 19 20  1  0
 20 21  2  0
 20 22  1  0
 22 23  1  0
 23 24  1  0
  6 25  2  0
 25  2  1  0
 15  7  2  0
 21 16  1  0
 24 19  1  0
M  END
$$$$
