
     RDKit          3D

 39 44  0  0  0  0  0  0  0  0999 V2000
  -15.1124   20.1764  -43.3634 C   0  0  0  0  0  0  0  0  0  0  0  0
  -14.8926   18.6732  -43.4299 C   0  0  0  0  0  0  0  0  0  0  0  0
  -13.5188   18.4332  -42.9880 N   0  0  0  0  0  0  0  0  0  0  0  0
  -12.5119   18.4937  -43.8491 C   0  0  0  0  0  0  0  0  0  0  0  0
  -12.7783   18.7691  -45.0674 O   0  0  0  0  0  0  0  0  0  0  0  0
  -11.1995   18.2749  -43.4947 C   0  0  0  0  0  0  0  0  0  0  0  0
  -10.1175   18.3435  -44.4594 C   0  0  0  0  0  0  0  0  0  0  0  0
   -9.9370   17.3499  -45.4145 C   0  0  0  0  0  0  0  0  0  0  0  0
   -8.9005   17.4166  -46.3320 C   0  0  0  0  0  0  0  0  0  0  0  0
   -8.0044   18.4612  -46.3450 C   0  0  0  0  0  0  0  0  0  0  0  0
   -6.9254   18.5099  -47.3139 C   0  0  0  0  0  0  0  0  0  0  0  0
   -6.0933   19.5450  -47.6402 C   0  0  0  0  0  0  0  0  0  0  0  0
   -5.2038   19.2950  -48.5648 N   0  0  0  0  0  0  0  0  0  0  0  0
   -5.0199   18.3026  -49.1554 C   0  0  0  0  0  0  0  0  0  0  0  0
   -6.3704   17.2226  -48.3711 S   0  0  0  0  0  0  0  0  0  0  0  0
   -8.1706   19.4494  -45.4076 C   0  0  0  0  0  0  0  0  0  0  0  0
   -9.2089   19.3897  -44.4826 C   0  0  0  0  0  0  0  0  0  0  0  0
   -9.4196   20.6568  -43.2843 Cl  0  0  0  0  0  0  0  0  0  0  0  0
  -10.9729   17.9822  -42.1692 C   0  0  0  0  0  0  0  0  0  0  0  0
  -12.0076   17.9123  -41.2472 C   0  0  0  0  0  0  0  0  0  0  0  0
  -11.8078   17.6174  -39.9166 C   0  0  0  0  0  0  0  0  0  0  0  0
  -12.8778   17.5698  -39.1036 N   0  0  0  0  0  0  0  0  0  0  0  0
  -14.1340   17.7957  -39.5237 C   0  0  0  0  0  0  0  0  0  0  0  0
  -15.2405   17.7216  -38.6095 N   0  0  0  0  0  0  0  0  0  0  0  0
  -16.4829   18.3777  -38.8771 C   0  0  0  0  0  0  0  0  0  0  0  0
  -16.7441   18.8942  -40.1270 C   0  0  0  0  0  0  0  0  0  0  0  0
  -17.9520   19.5295  -40.4149 C   0  0  0  0  0  0  0  0  0  0  0  0
  -18.9342   19.6663  -39.4582 C   0  0  0  0  0  0  0  0  0  0  0  0
  -20.1768   20.3224  -39.7448 N   0  0  0  0  0  0  0  0  0  0  0  0
  -20.3394   20.9849  -41.0308 C   0  0  0  0  0  0  0  0  0  0  0  0
  -21.3842   22.0841  -40.7957 C   0  0  0  0  0  0  0  0  0  0  0  0
  -22.6376   21.4128  -40.5530 N   0  0  0  0  0  0  0  0  0  0  0  0
  -23.3239   20.9979  -41.7307 C   0  0  0  0  0  0  0  0  0  0  0  0
  -22.6118   20.4919  -39.4783 C   0  0  0  0  0  0  0  0  0  0  0  0
  -21.2615   20.3421  -38.8208 C   0  0  0  0  0  0  0  0  0  0  0  0
  -18.6699   19.1492  -38.2094 C   0  0  0  0  0  0  0  0  0  0  0  0
  -17.4588   18.5105  -37.9163 C   0  0  0  0  0  0  0  0  0  0  0  0
  -14.3208   18.0829  -40.8228 N   0  0  0  0  0  0  0  0  0  0  0  0
  -13.2835   18.1471  -41.7006 C   0  0  0  0  0  0  0  0  0  0  0  0
  1  2  1  0
  2  3  1  0
  3  4  1  0
  4  5  2  0
  4  6  1  0
  6  7  1  0
  7  8  2  0
  8  9  1  0
  9 10  2  0
 10 11  1  0
 11 12  2  0
 12 13  1  0
 13 14  2  0
 14 15  1  0
 10 16  1  0
 16 17  2  0
 17 18  1  0
  6 19  2  0
 19 20  1  0
 20 21  2  0
 21 22  1  0
 22 23  2  0
 23 24  1  0
 24 25  1  0
 25 26  2  0
 26 27  1  0
 27 28  2  0
 28 29  1  0
 29 30  1  0
 30 31  1  0
 31 32  1  0
 32 33  1  0
 32 34  1  0
 34 35  1  0
 28 36  1  0
 36 37  2  0
 23 38  1  0
 38 39  2  0
 39  3  1  0
 17  7  1  0
 39 20  1  0
 15 11  1  0
 37 25  1  0
 35 29  1  0
M  END
$$$$
