
     RDKit          3D

 30 32  0  0  0  0  0  0  0  0999 V2000
  -18.8781   40.1984  -19.0268 C   0  0  0  0  0  0  0  0  0  0  0  0
  -19.1711   40.4809  -20.5088 C   0  0  0  0  0  0  0  0  0  0  0  0
  -19.5627   39.3030  -21.2001 C   0  0  0  0  0  0  0  0  0  0  0  0
  -19.7802   39.5603  -22.5884 C   0  0  0  0  0  0  0  0  0  0  0  0
  -20.1872   38.1782  -23.3187 C   0  0  0  0  0  0  0  0  0  0  0  0
  -21.3257   37.7755  -22.8307 C   0  0  0  0  0  0  0  0  0  0  0  0
  -22.5767   37.3271  -22.3177 N   0  0  0  0  0  0  0  0  0  0  0  0
  -19.1336   37.1718  -22.8550 C   0  0  0  0  0  0  0  0  0  0  0  0
  -19.4918   35.7763  -22.7797 C   0  0  0  0  0  0  0  0  0  0  0  0
  -18.4725   34.9793  -22.4280 C   0  0  0  0  0  0  0  0  0  0  0  0
  -17.2426   35.2892  -22.1601 C   0  0  0  0  0  0  0  0  0  0  0  0
  -16.0017   34.1087  -21.6525 Cl  0  0  0  0  0  0  0  0  0  0  0  0
  -16.8576   36.6485  -22.2299 C   0  0  0  0  0  0  0  0  0  0  0  0
  -17.8740   37.5775  -22.5907 C   0  0  0  0  0  0  0  0  0  0  0  0
  -19.6724   40.5892  -23.1333 C   0  0  0  0  0  0  0  0  0  0  0  0
  -20.0860   40.9126  -24.9052 Cl  0  0  0  0  0  0  0  0  0  0  0  0
  -19.2700   41.8670  -22.5082 C   0  0  0  0  0  0  0  0  0  0  0  0
  -19.0205   41.6618  -21.0622 C   0  0  0  0  0  0  0  0  0  0  0  0
  -18.5577   42.9416  -20.4848 N   0  0  0  0  0  0  0  0  0  0  0  0
  -17.1277   42.9755  -20.5318 C   0  0  0  0  0  0  0  0  0  0  0  0
  -16.3958   42.0880  -20.9589 O   0  0  0  0  0  0  0  0  0  0  0  0
  -16.3718   44.1779  -19.9638 C   0  0  0  0  0  0  0  0  0  0  0  0
  -14.9918   44.1156  -19.9856 C   0  0  0  0  0  0  0  0  0  0  0  0
  -14.2686   45.1833  -19.8800 C   0  0  0  0  0  0  0  0  0  0  0  0
  -12.1191   45.0939  -19.6545 I   0  0  0  0  0  0  0  0  0  0  0  0
  -14.8702   46.5159  -19.7380 C   0  0  0  0  0  0  0  0  0  0  0  0
  -16.3018   46.4693  -19.7144 C   0  0  0  0  0  0  0  0  0  0  0  0
  -17.2672   48.3524  -19.7158 I   0  0  0  0  0  0  0  0  0  0  0  0
  -17.0700   45.2953  -19.8204 C   0  0  0  0  0  0  0  0  0  0  0  0
  -18.4720   45.4012  -19.7572 O   0  0  0  0  0  0  0  0  0  0  0  0
  1  2  1  0
  2  3  2  0
  3  4  1  0
  4  5  1  0
  5  6  1  0
  6  7  3  0
  5  8  1  0
  8  9  2  0
  9 10  1  0
 10 11  2  0
 11 12  1  0
 11 13  1  0
 13 14  2  0
  4 15  2  0
 15 16  1  0
 15 17  1  0
 17 18  2  0
 18 19  1  0
 19 20  1  0
 20 21  2  0
 20 22  1  0
 22 23  2  0
 23 24  1  0
 24 25  1  0
 24 26  2  0
 26 27  1  0
 27 28  1  0
 27 29  2  0
 29 30  1  0
 18  2  1  0
 29 22  1  0
 14  8  1  0
M  END
$$$$
