
     RDKit          3D

 32 37  0  0  0  0  0  0  0  0999 V2000
  -24.4823   21.5061  -34.6662 C   0  0  0  0  0  0  0  0  0  0  0  0
  -24.2241   21.1297  -33.2375 C   0  0  2  0  0  0  0  0  0  0  0  0
  -25.2875   21.4496  -32.4125 O   0  0  0  0  0  0  0  0  0  0  0  0
  -22.8560   21.6105  -32.7093 C   0  0  0  0  0  0  0  0  0  0  0  0
  -22.2607   20.3586  -33.2430 C   0  0  1  0  0  0  0  0  0  0  0  0
  -21.2917   19.6239  -32.4194 C   0  0  0  0  0  0  0  0  0  0  0  0
  -21.1662   18.2711  -32.3874 N   0  0  0  0  0  0  0  0  0  0  0  0
  -20.1776   17.9633  -31.5338 C   0  0  0  0  0  0  0  0  0  0  0  0
  -19.7143   16.6076  -31.1739 C   0  0  0  0  0  0  0  0  0  0  0  0
  -20.6087   15.5847  -30.9763 C   0  0  0  0  0  0  0  0  0  0  0  0
  -20.1743   14.3293  -30.6753 C   0  0  0  0  0  0  0  0  0  0  0  0
  -18.8403   14.0218  -30.5536 C   0  0  0  0  0  0  0  0  0  0  0  0
  -18.4051   12.7526  -30.2493 C   0  0  0  0  0  0  0  0  0  0  0  0
  -17.0515   12.5347  -30.1468 C   0  0  0  0  0  0  0  0  0  0  0  0
  -16.1724   13.5790  -30.3487 C   0  0  0  0  0  0  0  0  0  0  0  0
  -14.7249   13.4096  -30.2535 C   0  0  0  0  0  0  0  0  0  0  0  0
  -14.1562   12.1689  -30.5594 C   0  0  0  0  0  0  0  0  0  0  0  0
  -12.8018   11.9591  -30.4853 C   0  0  0  0  0  0  0  0  0  0  0  0
  -11.9512   12.9590  -30.1079 C   0  0  0  0  0  0  0  0  0  0  0  0
  -12.4887   14.1821  -29.8040 C   0  0  0  0  0  0  0  0  0  0  0  0
  -13.8725   14.3908  -29.8813 C   0  0  0  0  0  0  0  0  0  0  0  0
  -16.6487   14.8029  -30.6444 N   0  0  0  0  0  0  0  0  0  0  0  0
  -17.9586   15.0761  -30.7577 C   0  0  0  0  0  0  0  0  0  0  0  0
  -18.3738   16.3482  -31.0623 C   0  0  0  0  0  0  0  0  0  0  0  0
  -19.6937   19.1426  -31.0363 C   0  0  0  0  0  0  0  0  0  0  0  0
  -18.7084   19.4444  -30.1339 C   0  0  0  0  0  0  0  0  0  0  0  0
  -17.9895   18.3981  -29.5113 N   0  0  0  0  0  0  0  0  0  0  0  0
  -18.4420   20.7035  -29.8175 N   0  0  0  0  0  0  0  0  0  0  0  0
  -19.1274   21.7149  -30.3686 C   0  0  0  0  0  0  0  0  0  0  0  0
  -20.1303   21.4663  -31.2805 C   0  0  0  0  0  0  0  0  0  0  0  0
  -20.3918   20.1850  -31.5928 N   0  0  0  0  0  0  0  0  0  0  0  0
  -23.6659   19.7216  -33.0539 C   0  0  0  0  0  0  0  0  0  0  0  0
  2  1  1  6
  2  3  1  0
  2  4  1  0
  4  5  1  0
  5  6  1  1
  6  7  2  0
  7  8  1  0
  8  9  1  0
  9 10  2  0
 10 11  1  0
 11 12  2  0
 12 13  1  0
 13 14  2  0
 14 15  1  0
 15 16  1  0
 16 17  2  0
 17 18  1  0
 18 19  2  0
 19 20  1  0
 20 21  2  0
 15 22  2  0
 22 23  1  0
 23 24  2  0
  8 25  2  0
 25 26  1  0
 26 27  1  0
 26 28  2  0
 28 29  1  0
 29 30  2  0
 30 31  1  0
  5 32  1  0
 32  2  1  0
 31  6  1  0
 24  9  1  0
 31 25  1  0
 23 12  1  0
 21 16  1  0
M  END
$$$$
