
     RDKit          3D

 28 30  0  0  0  0  0  0  0  0999 V2000
  -16.9744   41.6898  -19.6867 Cl  0  0  0  0  0  0  0  0  0  0  0  0
  -21.5557   34.6017  -22.3542 O   0  0  0  0  0  0  0  0  0  0  0  0
  -20.9454   35.5102  -21.7853 C   0  0  0  0  0  0  0  0  0  0  0  0
  -21.4042   36.6459  -21.0992 N   0  0  0  0  0  0  0  0  0  0  0  0
  -20.4907   37.6759  -20.9171 C   0  0  0  0  0  0  0  0  0  0  0  0
  -20.7456   38.7792  -20.3085 O   0  0  0  0  0  0  0  0  0  0  0  0
  -19.1637   37.4496  -21.4660 C   0  0  0  0  0  0  0  0  0  0  0  0
  -18.1956   38.2674  -21.7787 C   0  0  0  0  0  0  0  0  0  0  0  0
  -18.3318   39.6996  -21.6033 C   0  0  0  0  0  0  0  0  0  0  0  0
  -19.4263   40.3521  -22.1073 C   0  0  0  0  0  0  0  0  0  0  0  0
  -19.5652   41.6980  -21.9228 N   0  0  0  0  0  0  0  0  0  0  0  0
  -18.6409   42.4043  -21.2510 C   0  0  0  0  0  0  0  0  0  0  0  0
  -18.7907   43.6527  -21.0923 O   0  0  0  0  0  0  0  0  0  0  0  0
  -17.5184   41.8015  -20.7222 C   0  0  0  0  0  0  0  0  0  0  0  0
  -16.5202   42.5642  -19.9969 C   0  0  0  0  0  0  0  0  0  0  0  0
  -16.1018   43.7634  -20.5117 C   0  0  0  0  0  0  0  0  0  0  0  0
  -15.1363   44.4858  -19.7996 C   0  0  0  0  0  0  0  0  0  0  0  0
  -14.6164   44.0177  -18.6198 C   0  0  0  0  0  0  0  0  0  0  0  0
  -13.6458   44.7072  -17.8786 N   0  0  0  0  0  0  0  0  0  0  0  0
  -13.2063   44.1247  -16.5914 C   0  0  0  0  0  0  0  0  0  0  0  0
  -13.0381   45.2605  -15.5801 C   0  0  0  0  0  0  0  0  0  0  0  0
  -13.8042   46.4226  -15.9966 N   0  0  0  0  0  0  0  0  0  0  0  0
  -13.2600   47.0283  -17.1994 C   0  0  0  0  0  0  0  0  0  0  0  0
  -13.0077   45.9440  -18.2311 C   0  0  0  0  0  0  0  0  0  0  0  0
  -15.0917   42.8171  -18.1849 N   0  0  0  0  0  0  0  0  0  0  0  0
  -16.0056   42.0935  -18.8220 C   0  0  0  0  0  0  0  0  0  0  0  0
  -17.3942   40.4408  -20.9175 C   0  0  0  0  0  0  0  0  0  0  0  0
  -19.1574   35.6331  -21.6730 S   0  0  0  0  0  0  0  0  0  0  0  0
  2  3  2  0
  3  4  1  0
  4  5  1  0
  5  6  2  0
  5  7  1  0
  7  8  2  0
  8  9  1  0
  9 10  2  0
 10 11  1  0
 11 12  1  0
 12 13  2  0
 12 14  1  0
 14 15  1  0
 15 16  2  0
 16 17  1  0
 17 18  2  0
 18 19  1  0
 19 20  1  0
 20 21  1  0
 21 22  1  0
 22 23  1  0
 23 24  1  0
 18 25  1  0
 25 26  2  0
 14 27  2  0
  7 28  1  0
 28  3  1  0
 27  9  1  0
 26 15  1  0
 24 19  1  0
M  END
$$$$
