
     RDKit          3D

 22 24  0  0  0  0  0  0  0  0999 V2000
  -18.7356   41.1175  -19.1927 C   0  0  0  0  0  0  0  0  0  0  0  0
  -18.4919   41.9198  -20.4786 C   0  0  1  0  0  0  0  0  0  0  0  0
  -17.6979   43.1271  -20.2028 C   0  0  0  0  0  0  0  0  0  0  0  0
  -16.6328   43.2084  -19.3390 C   0  0  0  0  0  0  0  0  0  0  0  0
  -15.9322   44.4071  -19.1490 C   0  0  0  0  0  0  0  0  0  0  0  0
  -14.8236   44.4529  -18.2370 C   0  0  0  0  0  0  0  0  0  0  0  0
  -14.6864   45.4618  -17.3011 C   0  0  0  0  0  0  0  0  0  0  0  0
  -13.6236   45.4462  -16.4756 N   0  0  0  0  0  0  0  0  0  0  0  0
  -12.6831   44.5054  -16.5056 C   0  0  0  0  0  0  0  0  0  0  0  0
  -12.7881   43.5176  -17.3989 N   0  0  0  0  0  0  0  0  0  0  0  0
  -13.8416   43.4866  -18.2553 C   0  0  0  0  0  0  0  0  0  0  0  0
  -16.3015   45.5454  -19.8339 C   0  0  0  0  0  0  0  0  0  0  0  0
  -15.5912   46.6791  -19.6143 F   0  0  0  0  0  0  0  0  0  0  0  0
  -17.3680   45.4917  -20.7081 C   0  0  0  0  0  0  0  0  0  0  0  0
  -18.0472   44.2983  -20.8818 C   0  0  0  0  0  0  0  0  0  0  0  0
  -19.0878   44.2550  -21.7379 F   0  0  0  0  0  0  0  0  0  0  0  0
  -17.8365   41.0921  -21.5226 C   0  0  0  0  0  0  0  0  0  0  0  0
  -18.3490   39.6671  -21.6138 C   0  0  0  0  0  0  0  0  0  0  0  0
  -20.1351   39.5698  -21.4057 S   0  0  0  0  0  0  0  0  0  0  0  0
  -20.7508   41.2300  -21.1724 C   0  0  0  0  0  0  0  0  0  0  0  0
  -22.0199   41.5009  -21.2077 N   0  0  0  0  0  0  0  0  0  0  0  0
  -19.8362   42.2770  -20.9448 N   0  0  0  0  0  0  0  0  0  0  0  0
  2  1  1  1
  2  3  1  0
  3  4  2  0
  4  5  1  0
  5  6  1  0
  6  7  2  0
  7  8  1  0
  8  9  2  0
  9 10  1  0
 10 11  2  0
  5 12  2  0
 12 13  1  0
 12 14  1  0
 14 15  2  0
 15 16  1  0
  2 17  1  0
 17 18  1  0
 18 19  1  0
 19 20  1  0
 20 21  2  0
 20 22  1  0
 22  2  1  0
 15  3  1  0
 11  6  1  0
M  END
$$$$
