
     RDKit          3D

 30 29  0  0  0  0  0  0  0  0999 V2000
  -19.9539   15.8346  -35.6150 N   0  0  0  0  0  0  0  0  0  0  0  0
  -19.0633   15.0173  -36.0935 C   0  0  0  0  0  0  0  0  0  0  0  0
  -19.5527   13.8860  -36.8076 N   0  0  0  0  0  0  0  0  0  0  0  0
  -17.6801   15.2458  -35.9109 N   0  0  0  0  0  0  0  0  0  0  0  0
  -17.2223   16.4082  -35.2035 C   0  0  0  0  0  0  0  0  0  0  0  0
  -16.5629   17.4080  -36.0877 C   0  0  0  0  0  0  0  0  0  0  0  0
  -15.1826   17.0858  -36.5403 C   0  0  0  0  0  0  0  0  0  0  0  0
  -14.4151   18.2424  -37.1135 C   0  0  2  0  0  0  0  0  0  0  0  0
  -14.6134   19.4283  -36.3427 N   0  0  0  0  0  0  0  0  0  0  0  0
  -14.7884   18.4473  -38.5579 C   0  0  0  0  0  0  0  0  0  0  0  0
  -15.9957   18.6986  -38.7940 O   0  0  0  0  0  0  0  0  0  0  0  0
  -13.8013   18.3543  -39.5737 N   0  0  0  0  0  0  0  0  0  0  0  0
  -14.1479   17.9567  -40.9023 C   0  0  0  0  0  0  0  0  0  0  0  0
  -14.8333   19.0718  -41.6200 C   0  0  0  0  0  0  0  0  0  0  0  0
  -14.9784   20.1615  -41.0522 O   0  0  0  0  0  0  0  0  0  0  0  0
  -15.3261   18.9065  -42.9521 N   0  0  0  0  0  0  0  0  0  0  0  0
  -15.6365   20.0342  -43.7810 C   0  0  1  0  0  0  0  0  0  0  0  0
  -15.3403   19.8254  -45.2364 C   0  0  0  0  0  0  0  0  0  0  0  0
  -15.5823   21.0447  -46.0582 C   0  0  0  0  0  0  0  0  0  0  0  0
  -15.7338   22.1567  -45.4934 O   0  0  0  0  0  0  0  0  0  0  0  0
  -15.6491   21.0082  -47.4349 O   0  0  0  0  0  0  0  0  0  0  0  0
  -17.0916   20.3354  -43.6768 C   0  0  0  0  0  0  0  0  0  0  0  0
  -17.5873   21.3354  -44.2618 O   0  0  0  0  0  0  0  0  0  0  0  0
  -17.9856   19.5269  -42.9263 N   0  0  0  0  0  0  0  0  0  0  0  0
  -19.3891   19.8596  -42.7847 C   0  0  1  0  0  0  0  0  0  0  0  0
  -19.5436   20.3239  -41.3270 C   0  0  0  0  0  0  0  0  0  0  0  0
  -20.1109   22.0452  -41.3938 S   0  0  0  0  0  0  0  0  0  0  0  0
  -19.7995   20.9461  -43.6958 C   0  0  0  0  0  0  0  0  0  0  0  0
  -19.0011   21.4428  -44.5262 O   0  0  0  0  0  0  0  0  0  0  0  0
  -21.0880   21.4529  -43.6597 O   0  0  0  0  0  0  0  0  0  0  0  0
  1  2  2  0
  2  3  1  0
  2  4  1  0
  4  5  1  0
  5  6  1  0
  6  7  1  0
  7  8  1  0
  8  9  1  1
  8 10  1  0
 10 11  2  0
 10 12  1  0
 12 13  1  0
 13 14  1  0
 14 15  2  0
 14 16  1  0
 16 17  1  0
 17 18  1  6
 18 19  1  0
 19 20  2  0
 19 21  1  0
 17 22  1  0
 22 23  2  0
 22 24  1  0
 24 25  1  0
 25 26  1  1
 26 27  1  0
 25 28  1  0
 28 29  2  0
 28 30  1  0
M  END
$$$$
