
     RDKit          3D

 33 36  0  0  0  0  0  0  0  0999 V2000
  -22.8511   32.4217  -18.8599 C   0  0  0  0  0  0  0  0  0  0  0  0
  -21.5987   31.7415  -19.4034 C   0  0  0  0  0  0  0  0  0  0  0  0
  -21.8231   30.2641  -19.5245 C   0  0  0  0  0  0  0  0  0  0  0  0
  -21.1320   32.3509  -20.5665 O   0  0  0  0  0  0  0  0  0  0  0  0
  -21.6239   33.5434  -21.0847 C   0  0  0  0  0  0  0  0  0  0  0  0
  -22.7802   33.4778  -21.6049 O   0  0  0  0  0  0  0  0  0  0  0  0
  -20.9057   34.7584  -21.0471 N   0  0  0  0  0  0  0  0  0  0  0  0
  -19.6773   34.8612  -20.3208 C   0  0  0  0  0  0  0  0  0  0  0  0
  -18.6183   35.4903  -21.1772 C   0  0  0  0  0  0  0  0  0  0  0  0
  -19.1345   36.7529  -21.8712 C   0  0  0  0  0  0  0  0  0  0  0  0
  -19.4437   37.7580  -21.0521 O   0  0  0  0  0  0  0  0  0  0  0  0
  -19.2382   38.9795  -20.6419 C   0  0  0  0  0  0  0  0  0  0  0  0
  -19.6076   39.3111  -19.3615 N   0  0  0  0  0  0  0  0  0  0  0  0
  -19.4399   40.5296  -18.8497 C   0  0  0  0  0  0  0  0  0  0  0  0
  -18.8898   41.4742  -19.6080 N   0  0  0  0  0  0  0  0  0  0  0  0
  -18.4930   41.2628  -20.8677 C   0  0  0  0  0  0  0  0  0  0  0  0
  -18.6757   39.9798  -21.3898 C   0  0  0  0  0  0  0  0  0  0  0  0
  -18.1816   40.0731  -22.6738 C   0  0  0  0  0  0  0  0  0  0  0  0
  -17.7344   41.3440  -22.8886 N   0  0  0  0  0  0  0  0  0  0  0  0
  -17.9221   42.0647  -21.7970 N   0  0  0  0  0  0  0  0  0  0  0  0
  -17.5810   43.4372  -21.6391 C   0  0  0  0  0  0  0  0  0  0  0  0
  -18.2877   44.4503  -22.2484 C   0  0  0  0  0  0  0  0  0  0  0  0
  -17.8831   45.7471  -22.0370 C   0  0  0  0  0  0  0  0  0  0  0  0
  -16.8017   46.0781  -21.2422 C   0  0  0  0  0  0  0  0  0  0  0  0
  -16.3884   47.7689  -21.0530 S   0  0  0  0  0  6  0  0  0  0  0  0
  -17.4359   48.4314  -19.7823 C   0  0  0  0  0  0  0  0  0  0  0  0
  -14.9544   47.8446  -20.6131 O   0  0  0  0  0  0  0  0  0  0  0  0
  -16.5481   48.5133  -22.3446 O   0  0  0  0  0  0  0  0  0  0  0  0
  -16.1078   45.0670  -20.6427 C   0  0  0  0  0  0  0  0  0  0  0  0
  -16.4888   43.7598  -20.8355 C   0  0  0  0  0  0  0  0  0  0  0  0
  -15.8046   42.7498  -20.2434 F   0  0  0  0  0  0  0  0  0  0  0  0
  -20.3430   36.3435  -22.7298 C   0  0  0  0  0  0  0  0  0  0  0  0
  -21.4207   35.9040  -21.7501 C   0  0  0  0  0  0  0  0  0  0  0  0
  1  2  1  0
  2  3  1  0
  2  4  1  0
  4  5  1  0
  5  6  2  0
  5  7  1  0
  7  8  1  0
  8  9  1  0
  9 10  1  0
 10 11  1  0
 11 12  1  0
 12 13  2  0
 13 14  1  0
 14 15  2  0
 15 16  1  0
 16 17  2  0
 17 18  1  0
 18 19  2  0
 19 20  1  0
 20 21  1  0
 21 22  2  0
 22 23  1  0
 23 24  2  0
 24 25  1  0
 25 26  1  0
 25 27  2  0
 25 28  2  0
 24 29  1  0
 29 30  2  0
 30 31  1  0
 10 32  1  0
 32 33  1  0
 33  7  1  0
 17 12  1  0
 30 21  1  0
 20 16  1  0
M  END
$$$$
