
     RDKit          3D

 21 22  0  0  0  0  0  0  0  0999 V2000
  -17.2711   16.2979  -32.0874 O   0  0  0  0  0  0  0  0  0  0  0  0
  -17.1632   15.5502  -31.0592 C   0  0  0  0  0  0  0  0  0  0  0  0
  -18.2968   15.3493  -30.2378 N   0  0  0  0  0  0  0  0  0  0  0  0
  -19.5552   15.8633  -30.6251 C   0  0  0  0  0  0  0  0  0  0  0  0
  -19.7529   17.1384  -31.0840 C   0  0  0  0  0  0  0  0  0  0  0  0
  -21.0194   17.5722  -31.4459 C   0  0  0  0  0  0  0  0  0  0  0  0
  -22.1223   16.7506  -31.3613 C   0  0  0  0  0  0  0  0  0  0  0  0
  -23.4139   17.2050  -31.7344 N   0  0  0  0  0  4  0  0  0  0  0  0
  -24.3492   17.2897  -30.9216 O   0  0  0  0  0  0  0  0  0  0  0  0
  -23.6592   17.5683  -33.0329 O   0  0  0  0  0  1  0  0  0  0  0  0
  -21.9101   15.4695  -30.8979 C   0  0  0  0  0  0  0  0  0  0  0  0
  -20.6478   15.0308  -30.5351 C   0  0  0  0  0  0  0  0  0  0  0  0
  -20.4465   13.3907  -29.9538 Cl  0  0  0  0  0  0  0  0  0  0  0  0
  -15.8808   14.9311  -30.7671 C   0  0  0  0  0  0  0  0  0  0  0  0
  -15.7439   13.8860  -29.8801 C   0  0  0  0  0  0  0  0  0  0  0  0
  -14.5043   13.2991  -29.6079 C   0  0  0  0  0  0  0  0  0  0  0  0
  -14.3664   11.9722  -28.4748 Cl  0  0  0  0  0  0  0  0  0  0  0  0
  -13.4041   13.8060  -30.2648 C   0  0  0  0  0  0  0  0  0  0  0  0
  -13.5415   14.8490  -31.1499 C   0  0  0  0  0  0  0  0  0  0  0  0
  -14.7532   15.4325  -31.4245 C   0  0  0  0  0  0  0  0  0  0  0  0
  -14.8564   16.4872  -32.3265 O   0  0  0  0  0  0  0  0  0  0  0  0
  1  2  2  0
  2  3  1  0
  3  4  1  0
  4  5  2  0
  5  6  1  0
  6  7  2  0
  7  8  1  0
  8  9  2  0
  8 10  1  0
  7 11  1  0
 11 12  2  0
 12 13  1  0
  2 14  1  0
 14 15  2  0
 15 16  1  0
 16 17  1  0
 16 18  2  0
 18 19  1  0
 19 20  2  0
 20 21  1  0
 12  4  1  0
 20 14  1  0
M  CHG  2   8   1  10  -1
M  END
$$$$
