
     RDKit          3D

 22 24  0  0  0  0  0  0  0  0999 V2000
  -15.9162   46.9349  -21.0505 C   0  0  0  0  0  0  0  0  0  0  0  0
  -16.9977   46.4300  -20.2937 O   0  0  0  0  0  0  0  0  0  0  0  0
  -17.3477   45.0830  -20.5044 C   0  0  0  0  0  0  0  0  0  0  0  0
  -17.4234   44.2281  -19.4427 C   0  0  0  0  0  0  0  0  0  0  0  0
  -17.7707   42.8945  -19.6581 C   0  0  0  0  0  0  0  0  0  0  0  0
  -18.0450   42.3775  -20.8829 C   0  0  0  0  0  0  0  0  0  0  0  0
  -18.4123   41.0092  -21.1945 C   0  0  0  0  0  0  0  0  0  0  0  0
  -19.2045   40.3530  -20.3323 O   0  0  0  0  0  0  0  0  0  0  0  0
  -19.5798   39.1258  -20.5367 C   0  0  0  0  0  0  0  0  0  0  0  0
  -20.4001   38.4621  -19.6332 C   0  0  0  0  0  0  0  0  0  0  0  0
  -20.7904   37.1640  -19.8603 C   0  0  0  0  0  0  0  0  0  0  0  0
  -21.6131   36.5462  -18.9221 O   0  0  0  0  0  0  0  0  0  0  0  0
  -20.3782   36.4806  -20.9943 C   0  0  0  0  0  0  0  0  0  0  0  0
  -19.5735   37.1052  -21.8984 C   0  0  0  0  0  0  0  0  0  0  0  0
  -19.1134   36.5005  -23.0585 O   0  0  0  0  0  0  0  0  0  0  0  0
  -19.1869   38.4194  -21.6544 C   0  0  0  0  0  0  0  0  0  0  0  0
  -18.3757   39.0305  -22.5781 C   0  0  0  0  0  0  0  0  0  0  0  0
  -17.9750   38.4554  -23.6208 O   0  0  0  0  0  0  0  0  0  0  0  0
  -18.0010   40.3582  -22.3056 C   0  0  0  0  0  0  0  0  0  0  0  0
  -17.1812   40.9470  -23.2583 O   0  0  0  0  0  0  0  0  0  0  0  0
  -17.9573   43.2842  -21.9492 C   0  0  0  0  0  0  0  0  0  0  0  0
  -17.6171   44.6027  -21.7618 C   0  0  0  0  0  0  0  0  0  0  0  0
  1  2  1  0
  2  3  1  0
  3  4  2  0
  4  5  1  0
  5  6  2  0
  6  7  1  0
  7  8  1  0
  8  9  1  0
  9 10  2  0
 10 11  1  0
 11 12  1  0
 11 13  2  0
 13 14  1  0
 14 15  1  0
 14 16  2  0
 16 17  1  0
 17 18  2  0
 17 19  1  0
 19 20  1  0
  6 21  1  0
 21 22  2  0
 22  3  1  0
 19  7  2  0
 16  9  1  0
M  END
$$$$
