
     RDKit          3D

 24 25  0  0  0  0  0  0  0  0999 V2000
  -16.1727   46.7284  -16.8280 C   0  0  0  0  0  0  0  0  0  0  0  0
  -15.6121   45.4301  -16.8111 O   0  0  0  0  0  0  0  0  0  0  0  0
  -15.8755   44.5954  -17.8883 C   0  0  0  0  0  0  0  0  0  0  0  0
  -17.1598   44.2693  -18.2566 C   0  0  0  0  0  0  0  0  0  0  0  0
  -17.3465   43.4236  -19.3516 C   0  0  0  0  0  0  0  0  0  0  0  0
  -16.2861   42.9169  -20.0599 C   0  0  0  0  0  0  0  0  0  0  0  0
  -16.4559   42.0345  -21.2037 C   0  0  0  0  0  0  0  0  0  0  0  0
  -17.5182   41.3310  -21.4497 C   0  0  0  0  0  0  0  0  0  0  0  0
  -17.6040   40.3894  -22.5856 C   0  0  0  0  0  0  0  0  0  0  0  0
  -16.7337   40.4809  -23.4554 O   0  0  0  0  0  0  0  0  0  0  0  0
  -18.6306   39.4213  -22.6863 N   0  0  0  0  0  0  0  0  0  0  0  0
  -19.4632   39.1703  -23.7875 C   0  0  0  0  0  0  0  0  0  0  0  0
  -19.1459   39.6514  -25.0409 C   0  0  0  0  0  0  0  0  0  0  0  0
  -19.9442   39.4498  -26.1462 C   0  0  0  0  0  0  0  0  0  0  0  0
  -21.0978   38.7353  -25.9611 C   0  0  0  0  0  0  0  0  0  0  0  0
  -21.4363   38.2506  -24.7455 C   0  0  0  0  0  0  0  0  0  0  0  0
  -20.6429   38.4430  -23.6085 C   0  0  0  0  0  0  0  0  0  0  0  0
  -21.1090   37.9128  -22.3462 C   0  0  0  0  0  0  0  0  0  0  0  0
  -21.0011   36.7213  -21.9832 O   0  0  0  0  0  0  0  0  0  0  0  0
  -21.7401   38.8215  -21.4486 O   0  0  0  0  0  0  0  0  0  0  0  0
  -14.9858   43.2555  -19.6762 C   0  0  0  0  0  0  0  0  0  0  0  0
  -14.7842   44.0853  -18.6025 C   0  0  0  0  0  0  0  0  0  0  0  0
  -13.5101   44.4470  -18.1874 O   0  0  0  0  0  0  0  0  0  0  0  0
  -13.3077   44.6916  -16.8088 C   0  0  0  0  0  0  0  0  0  0  0  0
  1  2  1  0
  2  3  1  0
  3  4  2  0
  4  5  1  0
  5  6  2  0
  6  7  1  0
  7  8  2  0
  8  9  1  0
  9 10  2  0
  9 11  1  0
 11 12  1  0
 12 13  2  0
 13 14  1  0
 14 15  2  0
 15 16  1  0
 16 17  2  0
 17 18  1  0
 18 19  2  0
 18 20  1  0
  6 21  1  0
 21 22  2  0
 22 23  1  0
 23 24  1  0
 22  3  1  0
 17 12  1  0
M  END
$$$$
