
     RDKit          3D

 41 45  0  0  0  0  0  0  0  0999 V2000
  -15.6472   46.6021  -18.1851 C   0  0  0  0  0  0  0  0  0  0  0  0
  -15.7929   46.2507  -19.5591 O   0  0  0  0  0  0  0  0  0  0  0  0
  -16.2251   44.9837  -19.8867 C   0  0  0  0  0  0  0  0  0  0  0  0
  -15.2818   44.0544  -20.3171 C   0  0  0  0  0  0  0  0  0  0  0  0
  -13.8274   44.4204  -20.4107 C   0  0  0  0  0  0  0  0  0  0  0  0
  -15.7085   42.7721  -20.6502 C   0  0  0  0  0  0  0  0  0  0  0  0
  -17.0454   42.4420  -20.5493 C   0  0  0  0  0  0  0  0  0  0  0  0
  -17.3741   41.0855  -20.9079 N   0  0  0  0  0  0  0  0  0  0  0  0
  -18.5163   40.9668  -21.7428 C   0  0  0  0  0  0  0  0  0  0  0  0
  -19.1346   42.0536  -22.0658 O   0  0  0  0  0  0  0  0  0  0  0  0
  -19.0562   39.7319  -22.2565 C   0  0  0  0  0  0  0  0  0  0  0  0
  -18.3623   38.5688  -22.1978 N   0  0  0  0  0  0  0  0  0  0  0  0
  -19.0341   37.5598  -22.7155 N   0  0  0  0  0  0  0  0  0  0  0  0
  -18.4885   36.2010  -22.8166 C   0  0  0  0  0  0  0  0  0  0  0  0
  -17.6720   35.7522  -21.7152 C   0  0  0  0  0  0  0  0  0  0  0  0
  -18.0676   34.9555  -20.6698 C   0  0  0  0  0  0  0  0  0  0  0  0
  -17.2109   34.6569  -19.6234 C   0  0  0  0  0  0  0  0  0  0  0  0
  -15.9344   35.1513  -19.6006 C   0  0  0  0  0  0  0  0  0  0  0  0
  -15.0757   34.8616  -18.5658 F   0  0  0  0  0  0  0  0  0  0  0  0
  -15.5013   35.9512  -20.6297 C   0  0  0  0  0  0  0  0  0  0  0  0
  -16.3536   36.2439  -21.6642 C   0  0  0  0  0  0  0  0  0  0  0  0
  -20.2110   38.0384  -23.1334 C   0  0  0  0  0  0  0  0  0  0  0  0
  -20.2345   39.4187  -22.8475 C   0  0  0  0  0  0  0  0  0  0  0  0
  -21.3862   40.2624  -23.1993 C   0  0  0  0  0  0  0  0  0  0  0  0
  -22.5233   39.5381  -23.6999 N   0  0  0  0  0  0  0  0  0  0  0  0
  -23.5069   40.2416  -24.4234 C   0  0  0  0  0  0  0  0  0  0  0  0
  -24.3654   39.6319  -25.1030 O   0  0  0  0  0  0  0  0  0  0  0  0
  -23.6169   41.7098  -24.4506 C   0  0  0  0  0  0  0  0  0  0  0  0
  -23.4365   42.4925  -23.3185 C   0  0  0  0  0  0  0  0  0  0  0  0
  -23.6165   43.8067  -23.6911 C   0  0  0  0  0  0  0  0  0  0  0  0
  -23.9018   43.8030  -25.0328 C   0  0  0  0  0  0  0  0  0  0  0  0
  -23.8987   42.5107  -25.4897 N   0  0  0  0  0  0  0  0  0  0  0  0
  -22.6336   38.1268  -23.4487 C   0  0  0  0  0  0  0  0  0  0  0  0
  -21.3562   37.3615  -23.7794 C   0  0  1  0  0  0  0  0  0  0  0  0
  -21.2440   37.2809  -25.2737 C   0  0  0  0  0  0  0  0  0  0  0  0
  -21.5808   36.0023  -23.1854 C   0  0  0  0  0  0  0  0  0  0  0  0
  -22.6123   35.9183  -22.2110 N   0  0  0  0  0  0  0  0  0  0  0  0
  -20.8698   35.0569  -23.5754 O   0  0  0  0  0  0  0  0  0  0  0  0
  -17.9543   43.3732  -20.1226 C   0  0  0  0  0  0  0  0  0  0  0  0
  -17.5535   44.6741  -19.7804 C   0  0  0  0  0  0  0  0  0  0  0  0
  -18.5276   45.6806  -19.3178 C   0  0  0  0  0  0  0  0  0  0  0  0
  1  2  1  0
  2  3  1  0
  3  4  2  0
  4  5  1  0
  4  6  1  0
  6  7  2  0
  7  8  1  0
  8  9  1  0
  9 10  2  0
  9 11  1  0
 11 12  2  0
 12 13  1  0
 13 14  1  0
 14 15  1  0
 15 16  2  0
 16 17  1  0
 17 18  2  0
 18 19  1  0
 18 20  1  0
 20 21  2  0
 13 22  1  0
 22 23  2  0
 23 24  1  0
 24 25  1  0
 25 26  1  0
 26 27  2  0
 26 28  1  0
 28 29  2  0
 29 30  1  0
 30 31  2  0
 31 32  1  0
 25 33  1  0
 33 34  1  0
 34 35  1  6
 34 36  1  0
 36 37  1  0
 36 38  2  0
  7 39  1  0
 39 40  2  0
 40 41  1  0
 40  3  1  0
 23 11  1  0
 32 28  1  0
 21 15  1  0
 34 22  1  0
M  END
$$$$
