
     RDKit          3D

 31 34  0  0  0  0  0  0  0  0999 V2000
  -19.0858   16.6504  -35.5270 O   0  0  0  0  0  0  0  0  0  0  0  0
  -17.8637   16.8788  -35.5636 C   0  0  0  0  0  0  0  0  0  0  0  0
  -17.3624   17.4262  -36.8359 C   0  0  0  0  0  0  0  0  0  0  0  0
  -18.3761   17.7526  -37.7132 C   0  0  0  0  0  0  0  0  0  0  0  0
  -18.0552   18.2828  -38.9606 C   0  0  0  0  0  0  0  0  0  0  0  0
  -16.7605   18.5023  -39.3739 C   0  0  0  0  0  0  0  0  0  0  0  0
  -16.3964   19.0212  -40.6484 N   0  0  0  0  0  0  0  0  0  0  0  0
  -16.8022   20.2558  -41.1824 C   0  0  0  0  0  0  0  0  0  0  0  0
  -17.8376   20.9994  -40.6930 C   0  0  0  0  0  0  0  0  0  0  0  0
  -18.1663   22.2317  -41.2701 C   0  0  0  0  0  0  0  0  0  0  0  0
  -17.4725   22.7468  -42.3441 C   0  0  0  0  0  0  0  0  0  0  0  0
  -17.8216   23.9399  -42.8720 F   0  0  0  0  0  0  0  0  0  0  0  0
  -16.4288   21.9912  -42.8341 C   0  0  0  0  0  0  0  0  0  0  0  0
  -16.1072   20.7801  -42.2649 C   0  0  0  0  0  0  0  0  0  0  0  0
  -15.0736   20.0501  -42.7633 F   0  0  0  0  0  0  0  0  0  0  0  0
  -15.7673   18.1543  -38.4450 C   0  0  0  0  0  0  0  0  0  0  0  0
  -16.0485   17.6289  -37.2047 C   0  0  0  0  0  0  0  0  0  0  0  0
  -14.8328   17.3403  -36.3988 C   0  0  0  0  0  0  0  0  0  0  0  0
  -14.9385   17.9249  -34.9959 C   0  0  0  0  0  0  0  0  0  0  0  0
  -15.7842   17.0454  -34.1163 C   0  0  0  0  0  0  0  0  0  0  0  0
  -15.1612   16.6907  -32.9509 C   0  0  0  0  0  0  0  0  0  0  0  0
  -15.8437   15.8840  -32.0658 C   0  0  0  0  0  0  0  0  0  0  0  0
  -17.1327   15.4186  -32.3079 C   0  0  0  0  0  0  0  0  0  0  0  0
  -17.7861   14.6065  -31.3884 O   0  0  0  0  0  0  0  0  0  0  0  0
  -17.4342   14.7194  -30.0250 C   0  0  0  0  0  0  0  0  0  0  0  0
  -18.6869   14.8324  -29.1527 C   0  0  2  0  0  0  0  0  0  0  0  0
  -19.3617   16.0103  -29.3967 O   0  0  0  0  0  0  0  0  0  0  0  0
  -18.2128   14.8880  -27.7007 C   0  0  0  0  0  0  0  0  0  0  0  0
  -19.1033   14.2765  -26.8493 O   0  0  0  0  0  0  0  0  0  0  0  0
  -17.7667   15.7828  -33.4997 C   0  0  0  0  0  0  0  0  0  0  0  0
  -17.0614   16.5845  -34.3565 C   0  0  0  0  0  0  0  0  0  0  0  0
  1  2  2  0
  2  3  1  0
  3  4  2  0
  4  5  1  0
  5  6  2  0
  6  7  1  0
  7  8  1  0
  8  9  2  0
  9 10  1  0
 10 11  2  0
 11 12  1  0
 11 13  1  0
 13 14  2  0
 14 15  1  0
  6 16  1  0
 16 17  2  0
 17 18  1  0
 18 19  1  0
 19 20  1  0
 20 21  2  0
 21 22  1  0
 22 23  2  0
 23 24  1  0
 24 25  1  0
 25 26  1  0
 26 27  1  6
 26 28  1  0
 28 29  1  0
 23 30  1  0
 30 31  2  0
 31  2  1  0
 17  3  1  0
 31 20  1  0
 14  8  1  0
M  END
$$$$
