
     RDKit          3D

 36 40  0  0  0  0  0  0  0  0999 V2000
  -30.2976   14.3158  -22.4303 O   0  0  0  0  0  0  0  0  0  0  0  0
  -30.2182   14.1797  -21.1673 C   0  0  0  0  0  0  0  0  0  0  0  0
  -29.7273   15.3032  -20.4601 N   0  0  0  0  0  0  0  0  0  0  0  0
  -28.9488   16.3025  -21.1085 C   0  0  0  0  0  0  0  0  0  0  0  0
  -29.5090   17.5482  -21.2839 C   0  0  0  0  0  0  0  0  0  0  0  0
  -28.8275   18.5532  -21.8933 C   0  0  0  0  0  0  0  0  0  0  0  0
  -27.5475   18.3381  -22.3517 C   0  0  0  0  0  0  0  0  0  0  0  0
  -26.9712   17.0979  -22.1848 C   0  0  0  0  0  0  0  0  0  0  0  0
  -25.6973   16.8425  -22.6275 C   0  0  0  0  0  0  0  0  0  0  0  0
  -25.0772   17.7722  -23.1870 O   0  0  0  0  0  0  0  0  0  0  0  0
  -25.1863   15.5785  -22.4260 C   0  0  0  0  0  0  0  0  0  0  0  0
  -25.9460   14.5973  -21.7921 C   0  0  0  0  0  0  0  0  0  0  0  0
  -25.3282   13.2885  -21.6202 C   0  0  0  0  0  0  0  0  0  0  0  0
  -25.8630   12.2008  -21.0522 N   0  0  0  0  0  0  0  0  0  0  0  0
  -24.9696   11.2258  -21.0999 N   0  0  0  0  0  0  0  0  0  0  0  0
  -23.8693   11.6648  -21.6878 N   0  0  0  0  0  0  0  0  0  0  0  0
  -24.0856   12.9151  -22.0036 N   0  0  0  0  0  0  0  0  0  0  0  0
  -27.1590   14.8862  -21.3855 O   0  0  0  0  0  0  0  0  0  0  0  0
  -27.6793   16.0829  -21.5611 C   0  0  0  0  0  0  0  0  0  0  0  0
  -30.6134   12.9375  -20.5188 C   0  0  0  0  0  0  0  0  0  0  0  0
  -31.1495   11.8577  -21.1675 C   0  0  0  0  0  0  0  0  0  0  0  0
  -31.5174   10.6963  -20.5534 C   0  0  0  0  0  0  0  0  0  0  0  0
  -31.3488   10.5689  -19.1717 C   0  0  0  0  0  0  0  0  0  0  0  0
  -31.7144    9.4152  -18.5406 O   0  0  0  0  0  0  0  0  0  0  0  0
  -32.7384    9.1037  -17.7026 C   0  0  0  0  0  0  0  0  0  0  0  0
  -32.5540    7.9045  -16.8140 C   0  0  0  0  0  0  0  0  0  0  0  0
  -33.8858    7.7356  -16.0680 C   0  0  0  0  0  0  0  0  0  0  0  0
  -33.8734    6.5073  -15.2172 C   0  0  0  0  0  0  0  0  0  0  0  0
  -35.1499    6.2907  -14.5232 C   0  0  0  0  0  0  0  0  0  0  0  0
  -35.2334    6.5262  -13.1637 C   0  0  0  0  0  0  0  0  0  0  0  0
  -36.4383    6.3185  -12.5306 C   0  0  0  0  0  0  0  0  0  0  0  0
  -37.5599    5.8873  -13.1939 C   0  0  0  0  0  0  0  0  0  0  0  0
  -37.4935    5.6467  -14.5561 C   0  0  0  0  0  0  0  0  0  0  0  0
  -36.2926    5.8541  -15.1847 C   0  0  0  0  0  0  0  0  0  0  0  0
  -30.8192   11.6248  -18.4960 C   0  0  0  0  0  0  0  0  0  0  0  0
  -30.4526   12.8014  -19.1600 C   0  0  0  0  0  0  0  0  0  0  0  0
  1  2  2  0
  2  3  1  0
  3  4  1  0
  4  5  2  0
  5  6  1  0
  6  7  2  0
  7  8  1  0
  8  9  1  0
  9 10  2  0
  9 11  1  0
 11 12  2  0
 12 13  1  0
 13 14  1  0
 14 15  2  0
 15 16  1  0
 16 17  1  0
 12 18  1  0
 18 19  1  0
  2 20  1  0
 20 21  2  0
 21 22  1  0
 22 23  2  0
 23 24  1  0
 24 25  1  0
 25 26  1  0
 26 27  1  0
 27 28  1  0
 28 29  1  0
 29 30  2  0
 30 31  1  0
 31 32  2  0
 32 33  1  0
 33 34  2  0
 23 35  1  0
 35 36  2  0
 19  4  1  0
 36 20  1  0
 19  8  2  0
 34 29  1  0
 17 13  2  0
M  END
$$$$
