
     RDKit          3D

 13 14  0  0  0  0  0  0  0  0999 V2000
  -20.4564   33.9895  -23.0304 N   0  0  0  0  0  0  0  0  0  0  0  0
  -19.8187   35.0038  -23.8319 C   0  0  0  0  0  0  0  0  0  0  0  0
  -19.2107   36.0121  -22.9255 C   0  0  0  0  0  0  0  0  0  0  0  0
  -17.8912   36.0372  -22.4959 C   0  0  0  0  0  0  0  0  0  0  0  0
  -17.8074   37.1439  -21.6830 C   0  0  0  0  0  0  0  0  0  0  0  0
  -19.0434   37.7473  -21.6398 C   0  0  0  0  0  0  0  0  0  0  0  0
  -19.3811   38.9653  -20.8795 C   0  0  0  0  0  0  0  0  0  0  0  0
  -20.6601   39.4825  -20.9013 C   0  0  0  0  0  0  0  0  0  0  0  0
  -20.9670   40.6287  -20.1824 C   0  0  0  0  0  0  0  0  0  0  0  0
  -19.9620   41.2348  -19.4479 C   0  0  0  0  0  0  0  0  0  0  0  0
  -18.7342   40.7011  -19.4534 N   0  0  0  0  0  0  0  0  0  0  0  0
  -18.4034   39.5917  -20.1390 C   0  0  0  0  0  0  0  0  0  0  0  0
  -19.8355   37.0336  -22.3944 O   0  0  0  0  0  0  0  0  0  0  0  0
  1  2  1  0
  2  3  1  0
  3  4  2  0
  4  5  1  0
  5  6  2  0
  6  7  1  0
  7  8  2  0
  8  9  1  0
  9 10  2  0
 10 11  1  0
 11 12  2  0
  6 13  1  0
 13  3  1  0
 12  7  1  0
M  END
$$$$
