
     RDKit          3D

 27 29  0  0  0  0  0  0  0  0999 V2000
  -32.7935    9.2730  -19.6690 C   0  0  0  0  0  0  0  0  0  0  0  0
  -32.4459   10.6484  -19.1150 C   0  0  0  0  0  0  0  0  0  0  0  0
  -32.1079   10.5297  -17.6598 C   0  0  0  0  0  0  0  0  0  0  0  0
  -31.3146   11.2350  -19.9121 C   0  0  0  0  0  0  0  0  0  0  0  0
  -30.8450   10.6257  -20.9001 O   0  0  0  0  0  0  0  0  0  0  0  0
  -30.7810   12.4810  -19.5411 N   0  0  0  0  0  0  0  0  0  0  0  0
  -29.9068   13.2146  -20.4467 C   0  0  0  0  0  0  0  0  0  0  0  0
  -29.7427   14.2662  -20.8966 N   0  0  0  0  0  0  0  0  0  0  0  0
  -28.8297   14.7013  -21.7410 C   0  0  0  0  0  0  0  0  0  0  0  0
  -27.9329   13.7807  -22.1577 C   0  0  0  0  0  0  0  0  0  0  0  0
  -26.7833   13.7789  -23.0527 C   0  0  0  0  0  0  0  0  0  0  0  0
  -26.7439   13.3041  -24.3453 C   0  0  0  0  0  0  0  0  0  0  0  0
  -25.4699   13.4866  -24.8469 C   0  0  0  0  0  0  0  0  0  0  0  0
  -24.9679   13.1180  -26.2156 C   0  0  0  0  0  0  0  0  0  0  0  0
  -25.9677   13.3964  -27.1238 F   0  0  0  0  0  0  0  0  0  0  0  0
  -23.8161   13.8268  -26.4756 F   0  0  0  0  0  0  0  0  0  0  0  0
  -24.7834   14.0616  -23.8501 N   0  0  0  0  0  0  0  0  0  0  0  0
  -25.5600   14.2430  -22.7666 N   0  0  0  0  0  0  0  0  0  0  0  0
  -25.0989   14.8319  -21.5583 C   0  0  0  0  0  0  0  0  0  0  0  0
  -25.2323   16.1779  -21.3160 C   0  0  0  0  0  0  0  0  0  0  0  0
  -25.9865   17.2469  -22.4771 Cl  0  0  0  0  0  0  0  0  0  0  0  0
  -24.7723   16.7558  -20.1321 C   0  0  0  0  0  0  0  0  0  0  0  0
  -24.1647   15.9723  -19.1668 C   0  0  0  0  0  0  0  0  0  0  0  0
  -24.0310   14.6275  -19.4080 C   0  0  0  0  0  0  0  0  0  0  0  0
  -24.4918   14.0668  -20.5869 C   0  0  0  0  0  0  0  0  0  0  0  0
  -24.3285   12.3494  -20.9105 Cl  0  0  0  0  0  0  0  0  0  0  0  0
  -28.4855   12.2787  -21.2673 S   0  0  0  0  0  0  0  0  0  0  0  0
  1  2  1  0
  2  3  1  0
  2  4  1  0
  4  5  2  0
  4  6  1  0
  6  7  1  0
  7  8  2  0
  8  9  1  0
  9 10  2  0
 10 11  1  0
 11 12  2  0
 12 13  1  0
 13 14  1  0
 14 15  1  0
 14 16  1  0
 13 17  2  0
 17 18  1  0
 18 19  1  0
 19 20  2  0
 20 21  1  0
 20 22  1  0
 22 23  2  0
 23 24  1  0
 24 25  2  0
 25 26  1  0
 10 27  1  0
 27  7  1  0
 18 11  1  0
 25 19  1  0
M  END
$$$$
