
     RDKit          3D

 24 27  0  0  0  0  0  0  0  0999 V2000
  -17.9002   40.1510  -20.5207 O   0  0  0  0  0  0  0  0  0  0  0  0
  -18.4623   39.8098  -21.6229 C   0  0  0  0  0  0  0  0  0  0  0  0
  -18.8220   38.5068  -21.9001 N   0  0  0  0  0  0  0  0  0  0  0  0
  -19.3739   38.2276  -23.0018 C   0  0  0  0  0  0  0  0  0  0  0  0
  -19.7894   36.9585  -23.4177 N   0  0  0  0  0  0  0  0  0  0  0  0
  -20.0062   35.8990  -22.4727 C   0  0  0  0  0  0  0  0  0  0  0  0
  -18.7976   35.4475  -21.7925 C   0  0  0  0  0  0  0  0  0  0  0  0
  -17.6948   34.7530  -22.1699 C   0  0  0  0  0  0  0  0  0  0  0  0
  -16.7299   34.4876  -21.2997 C   0  0  0  0  0  0  0  0  0  0  0  0
  -16.8643   34.9285  -20.0008 C   0  0  0  0  0  0  0  0  0  0  0  0
  -18.4747   35.7723  -20.0465 S   0  0  0  0  0  0  0  0  0  0  0  0
  -19.5393   39.7554  -23.9035 S   0  0  0  0  0  0  0  0  0  0  0  0
  -18.7618   40.7764  -22.6635 C   0  0  0  0  0  0  0  0  0  0  0  0
  -18.5336   42.0454  -22.7491 C   0  0  0  0  0  0  0  0  0  0  0  0
  -17.9342   42.8205  -21.6994 C   0  0  0  0  0  0  0  0  0  0  0  0
  -16.7980   42.2914  -21.1071 C   0  0  0  0  0  0  0  0  0  0  0  0
  -16.1363   42.9179  -20.0736 C   0  0  0  0  0  0  0  0  0  0  0  0
  -16.6190   44.1354  -19.5930 C   0  0  0  0  0  0  0  0  0  0  0  0
  -15.9712   44.7456  -18.5881 N   0  0  0  0  0  0  0  0  0  0  0  0
  -16.3954   45.9210  -18.0937 C   0  0  0  0  0  0  0  0  0  0  0  0
  -17.5299   46.5277  -18.6252 C   0  0  0  0  0  0  0  0  0  0  0  0
  -18.1893   45.8981  -19.6547 C   0  0  0  0  0  0  0  0  0  0  0  0
  -17.7394   44.6863  -20.1557 C   0  0  0  0  0  0  0  0  0  0  0  0
  -18.3875   44.0267  -21.2035 C   0  0  0  0  0  0  0  0  0  0  0  0
  1  2  2  0
  2  3  1  0
  3  4  2  0
  4  5  1  0
  5  6  1  0
  6  7  1  0
  7  8  2  0
  8  9  1  0
  9 10  2  0
 10 11  1  0
  4 12  1  0
 12 13  1  0
 13 14  2  0
 14 15  1  0
 15 16  2  0
 16 17  1  0
 17 18  2  0
 18 19  1  0
 19 20  2  0
 20 21  1  0
 21 22  2  0
 22 23  1  0
 23 24  2  0
 13  2  1  0
 24 15  1  0
 11  7  1  0
 23 18  1  0
M  END
$$$$
