
     RDKit          3D

 26 29  0  0  0  0  0  0  0  0999 V2000
  -19.2531   45.1330  -21.8217 C   0  0  0  0  0  0  0  0  0  0  0  0
  -17.7692   45.0331  -21.8539 C   0  0  1  0  0  0  0  0  0  0  0  0
  -17.1537   46.1911  -21.0560 C   0  0  0  0  0  0  0  0  0  0  0  0
  -15.7819   45.6823  -20.8265 C   0  0  0  0  0  0  0  0  0  0  0  0
  -14.5744   46.2874  -20.5672 C   0  0  0  0  0  0  0  0  0  0  0  0
  -13.3970   45.5817  -20.3797 C   0  0  0  0  0  0  0  0  0  0  0  0
  -13.4500   44.2114  -20.4587 C   0  0  0  0  0  0  0  0  0  0  0  0
  -14.6511   43.5972  -20.7174 C   0  0  0  0  0  0  0  0  0  0  0  0
  -15.8360   44.3090  -20.9062 C   0  0  0  0  0  0  0  0  0  0  0  0
  -17.1982   43.8912  -21.1899 N   0  0  0  0  0  0  0  0  0  0  0  0
  -17.6919   42.6277  -20.8410 C   0  0  0  0  0  0  0  0  0  0  0  0
  -16.9369   41.8269  -20.2153 O   0  0  0  0  0  0  0  0  0  0  0  0
  -19.0594   42.1499  -21.1578 C   0  0  0  0  0  0  0  0  0  0  0  0
  -19.2581   40.7612  -20.6236 C   0  0  0  0  0  0  0  0  0  0  0  0
  -19.3408   40.5637  -19.2948 N   0  0  0  0  0  0  0  0  0  0  0  0
  -19.5164   39.2997  -18.8714 C   0  0  0  0  0  0  0  0  0  0  0  0
  -19.5958   39.0950  -17.6377 O   0  0  0  0  0  0  0  0  0  0  0  0
  -19.6124   38.2225  -19.7354 C   0  0  0  0  0  0  0  0  0  0  0  0
  -19.5217   38.4739  -21.0952 C   0  0  0  0  0  0  0  0  0  0  0  0
  -19.6204   37.3618  -21.9798 N   0  0  0  0  0  0  0  0  0  0  0  0
  -20.0504   36.1092  -21.4192 C   0  0  0  0  0  0  0  0  0  0  0  0
  -20.3669   35.1293  -22.5210 C   0  0  0  0  0  0  0  0  0  0  0  0
  -19.3682   35.1931  -23.4893 O   0  0  0  0  0  0  0  0  0  0  0  0
  -19.5785   36.3669  -24.2187 C   0  0  0  0  0  0  0  0  0  0  0  0
  -19.2833   37.5767  -23.3653 C   0  0  0  0  0  0  0  0  0  0  0  0
  -19.3491   39.7292  -21.4775 N   0  0  0  0  0  0  0  0  0  0  0  0
  2  1  1  1
  2  3  1  0
  3  4  1  0
  4  5  2  0
  5  6  1  0
  6  7  2  0
  7  8  1  0
  8  9  2  0
  9 10  1  0
 10 11  1  0
 11 12  2  0
 11 13  1  0
 13 14  1  0
 14 15  2  0
 15 16  1  0
 16 17  2  0
 16 18  1  0
 18 19  2  0
 19 20  1  0
 20 21  1  0
 21 22  1  0
 22 23  1  0
 23 24  1  0
 24 25  1  0
 19 26  1  0
 10  2  1  0
 26 14  1  0
  9  4  1  0
 25 20  1  0
M  END
$$$$
