
     RDKit          3D

 20 22  0  0  0  0  0  0  0  0999 V2000
  -18.5639   40.7978  -19.6405 O   0  0  0  0  0  0  0  0  0  0  0  0
  -18.0089   41.4882  -20.5320 C   0  0  0  0  0  0  0  0  0  0  0  0
  -18.3163   41.2851  -21.8695 O   0  0  0  0  0  0  0  0  0  0  0  0
  -19.2990   40.3496  -22.1636 C   0  0  0  0  0  0  0  0  0  0  0  0
  -19.0375   39.0121  -22.3790 C   0  0  0  0  0  0  0  0  0  0  0  0
  -17.3842   38.4784  -22.2744 Cl  0  0  0  0  0  0  0  0  0  0  0  0
  -20.0241   38.0950  -22.6702 C   0  0  0  0  0  0  0  0  0  0  0  0
  -21.3395   38.4977  -22.7575 C   0  0  0  0  0  0  0  0  0  0  0  0
  -22.5848   37.3233  -23.1281 Cl  0  0  0  0  0  0  0  0  0  0  0  0
  -21.6175   39.8296  -22.5451 C   0  0  0  0  0  0  0  0  0  0  0  0
  -22.9197   40.2619  -22.6253 C   0  0  0  0  0  0  0  0  0  0  0  0
  -23.1701   41.5984  -22.4087 C   0  0  0  0  0  0  0  0  0  0  0  0
  -22.1733   42.4871  -22.1215 C   0  0  0  0  0  0  0  0  0  0  0  0
  -20.9007   42.0455  -22.0467 N   0  0  0  0  0  0  0  0  0  0  0  0
  -20.6344   40.7448  -22.2547 C   0  0  0  0  0  0  0  0  0  0  0  0
  -17.0408   42.4980  -20.1023 C   0  0  0  0  0  0  0  0  0  0  0  0
  -16.2943   43.3265  -20.9102 C   0  0  0  0  0  0  0  0  0  0  0  0
  -15.5074   44.1275  -20.1108 C   0  0  0  0  0  0  0  0  0  0  0  0
  -15.8129   43.7466  -18.8223 C   0  0  0  0  0  0  0  0  0  0  0  0
  -16.7086   42.7962  -18.8499 O   0  0  0  0  0  0  0  0  0  0  0  0
  1  2  2  0
  2  3  1  0
  3  4  1  0
  4  5  2  0
  5  6  1  0
  5  7  1  0
  7  8  2  0
  8  9  1  0
  8 10  1  0
 10 11  2  0
 11 12  1  0
 12 13  2  0
 13 14  1  0
 14 15  2  0
  2 16  1  0
 16 17  2  0
 17 18  1  0
 18 19  2  0
 19 20  1  0
 15  4  1  0
 20 16  1  0
 15 10  1  0
M  END
$$$$
