
     RDKit          3D

 21 22  0  0  0  0  0  0  0  0999 V2000
  -17.3509   37.1725  -23.5135 C   0  0  0  0  0  0  0  0  0  0  0  0
  -18.3383   36.6629  -22.5053 C   0  0  0  0  0  0  0  0  0  0  0  0
  -19.0300   35.5517  -22.5373 O   0  0  0  0  0  0  0  0  0  0  0  0
  -19.8038   35.4123  -21.4929 C   0  0  0  0  0  0  0  0  0  0  0  0
  -20.7147   34.3222  -21.1689 C   0  0  0  0  0  0  0  0  0  0  0  0
  -20.7649   33.3214  -21.9169 O   0  0  0  0  0  0  0  0  0  0  0  0
  -21.5288   34.3609  -20.0553 O   0  0  0  0  0  0  0  0  0  0  0  0
  -19.5853   36.5484  -20.7147 C   0  0  0  0  0  0  0  0  0  0  0  0
  -18.6601   37.3518  -21.3400 C   0  0  0  0  0  0  0  0  0  0  0  0
  -18.1580   38.6342  -20.8455 C   0  0  0  0  0  0  0  0  0  0  0  0
  -19.4623   39.8733  -20.6428 S   0  0  0  0  0  0  0  0  0  0  0  0
  -19.1579   41.3196  -21.6602 C   0  0  0  0  0  0  0  0  0  0  0  0
  -18.4263   42.3883  -20.9705 C   0  0  0  0  0  0  0  0  0  0  0  0
  -18.8542   43.6617  -20.7361 C   0  0  0  0  0  0  0  0  0  0  0  0
  -17.8349   44.3247  -20.0526 C   0  0  0  0  0  0  0  0  0  0  0  0
  -17.8207   45.6952  -19.5846 C   0  0  0  0  0  0  0  0  0  0  0  0
  -16.8249   46.1298  -18.9765 O   0  0  0  0  0  0  0  0  0  0  0  0
  -18.8986   46.5218  -19.8065 O   0  0  0  0  0  0  0  0  0  0  0  0
  -16.8275   43.3712  -19.9174 C   0  0  0  0  0  0  0  0  0  0  0  0
  -15.5134   43.5873  -19.2503 C   0  0  0  0  0  0  0  0  0  0  0  0
  -17.2227   42.2505  -20.4725 O   0  0  0  0  0  0  0  0  0  0  0  0
  1  2  1  0
  2  3  1  0
  3  4  1  0
  4  5  1  0
  5  6  2  0
  5  7  1  0
  4  8  2  0
  8  9  1  0
  9 10  1  0
 10 11  1  0
 11 12  1  0
 12 13  1  0
 13 14  2  0
 14 15  1  0
 15 16  1  0
 16 17  2  0
 16 18  1  0
 15 19  2  0
 19 20  1  0
 19 21  1  0
  9  2  2  0
 21 13  1  0
M  END
$$$$
