
     RDKit          3D

 33 36  0  0  0  0  0  0  0  0999 V2000
  -15.8354   45.7164  -22.6615 O   0  0  0  0  0  0  0  0  0  0  0  0
  -15.7574   44.7397  -21.8891 C   0  0  0  0  0  0  0  0  0  0  0  0
  -16.8401   43.8447  -21.7952 N   0  0  0  0  0  0  0  0  0  0  0  0
  -17.7182   43.5503  -22.8960 C   0  0  0  0  0  0  0  0  0  0  0  0
  -17.9674   42.2967  -23.3559 C   0  0  0  0  0  0  0  0  0  0  0  0
  -18.8355   42.1127  -24.4290 C   0  0  0  0  0  0  0  0  0  0  0  0
  -19.4296   43.2136  -25.0083 C   0  0  0  0  0  0  0  0  0  0  0  0
  -19.1739   44.4525  -24.5425 N   0  0  0  0  0  0  0  0  0  0  0  0
  -18.3343   44.6282  -23.5050 C   0  0  0  0  0  0  0  0  0  0  0  0
  -14.5984   44.5397  -21.1227 N   0  0  0  0  0  0  0  0  0  0  0  0
  -13.5846   45.5755  -21.1138 C   0  0  0  0  0  0  0  0  0  0  0  0
  -12.6710   45.3820  -19.9199 C   0  0  0  0  0  0  0  0  0  0  0  0
  -13.5589   44.9487  -18.7736 C   0  0  0  0  0  0  0  0  0  0  0  0
  -12.8508   45.2008  -17.4653 C   0  0  0  0  0  0  0  0  0  0  0  0
  -12.9725   44.1087  -16.5040 C   0  0  0  0  0  0  0  0  0  0  0  0
  -13.9880   43.1847  -16.6455 C   0  0  0  0  0  0  0  0  0  0  0  0
  -14.1371   42.1381  -15.7529 C   0  0  0  0  0  0  0  0  0  0  0  0
  -13.2389   42.0137  -14.6834 C   0  0  0  0  0  0  0  0  0  0  0  0
  -12.2140   42.9147  -14.5090 C   0  0  0  0  0  0  0  0  0  0  0  0
  -11.2851   42.8986  -13.5162 O   0  0  0  0  0  0  0  0  0  0  0  0
  -10.1414   42.1784  -13.4251 C   0  0  0  0  0  0  0  0  0  0  0  0
   -9.1484   42.6063  -12.5217 C   0  0  0  0  0  0  0  0  0  0  0  0
   -7.9862   41.9103  -12.4013 C   0  0  0  0  0  0  0  0  0  0  0  0
   -7.7401   40.7803  -13.1451 C   0  0  0  0  0  0  0  0  0  0  0  0
   -6.4759   40.0474  -12.9958 C   0  0  0  0  0  0  0  0  0  0  0  0
   -6.6970   38.6677  -12.9927 F   0  0  0  0  0  0  0  0  0  0  0  0
   -5.8270   40.3606  -11.8201 F   0  0  0  0  0  0  0  0  0  0  0  0
   -5.6555   40.3461  -14.0543 F   0  0  0  0  0  0  0  0  0  0  0  0
   -8.7446   40.3945  -14.0222 C   0  0  0  0  0  0  0  0  0  0  0  0
   -9.8590   41.0836  -14.1206 N   0  0  0  0  0  0  0  0  0  0  0  0
  -12.1130   43.9607  -15.4515 C   0  0  0  0  0  0  0  0  0  0  0  0
  -13.9222   43.5170  -18.9767 C   0  0  0  0  0  0  0  0  0  0  0  0
  -14.4346   43.3071  -20.3596 C   0  0  0  0  0  0  0  0  0  0  0  0
  1  2  2  0
  2  3  1  0
  3  4  1  0
  4  5  2  0
  5  6  1  0
  6  7  2  0
  7  8  1  0
  8  9  2  0
  2 10  1  0
 10 11  1  0
 11 12  1  0
 12 13  1  0
 13 14  1  0
 14 15  1  0
 15 16  2  0
 16 17  1  0
 17 18  2  0
 18 19  1  0
 19 20  1  0
 20 21  1  0
 21 22  2  0
 22 23  1  0
 23 24  2  0
 24 25  1  0
 25 26  1  0
 25 27  1  0
 25 28  1  0
 24 29  1  0
 29 30  2  0
 19 31  2  0
 13 32  1  0
 32 33  1  0
  9  4  1  0
 33 10  1  0
 31 15  1  0
 30 21  1  0
M  END
$$$$
