
     RDKit          3D

 26 29  0  0  0  0  0  0  0  0999 V2000
  -20.1030   39.5334  -19.1921 C   0  0  0  0  0  0  0  0  0  0  0  0
  -18.7202   39.8010  -19.1165 O   0  0  0  0  0  0  0  0  0  0  0  0
  -18.1019   40.6568  -20.0372 C   0  0  0  0  0  0  0  0  0  0  0  0
  -16.7663   40.8012  -20.0387 N   0  0  0  0  0  0  0  0  0  0  0  0
  -16.1618   41.6060  -20.9018 C   0  0  0  0  0  0  0  0  0  0  0  0
  -16.8814   42.3302  -21.8363 C   0  0  0  0  0  0  0  0  0  0  0  0
  -18.2535   42.1840  -21.8375 C   0  0  0  0  0  0  0  0  0  0  0  0
  -19.0191   42.9159  -22.8250 C   0  0  0  0  0  0  0  0  0  0  0  0
  -18.9228   44.2962  -22.9498 C   0  0  0  0  0  0  0  0  0  0  0  0
  -18.0687   45.1537  -22.1425 C   0  0  0  0  0  0  0  0  0  0  0  0
  -17.2313   46.0546  -22.7686 C   0  0  0  0  0  0  0  0  0  0  0  0
  -16.3877   46.9075  -22.0681 C   0  0  0  0  0  0  0  0  0  0  0  0
  -16.3764   46.8628  -20.6937 C   0  0  0  0  0  0  0  0  0  0  0  0
  -15.5768   47.6691  -19.9678 F   0  0  0  0  0  0  0  0  0  0  0  0
  -17.2134   45.9622  -20.0666 C   0  0  0  0  0  0  0  0  0  0  0  0
  -18.0489   45.1181  -20.7718 C   0  0  0  0  0  0  0  0  0  0  0  0
  -19.7655   44.6166  -23.9411 N   0  0  0  0  0  0  0  0  0  0  0  0
  -20.3492   43.4978  -24.4023 C   0  0  0  0  0  0  0  0  0  0  0  0
  -19.8788   42.4277  -23.6990 N   0  0  0  0  0  0  0  0  0  0  0  0
  -20.3132   41.1102  -23.9471 C   0  0  0  0  0  0  0  0  0  0  0  0
  -19.6001   40.3422  -25.0038 C   0  0  0  0  0  0  0  0  0  0  0  0
  -20.1964   38.9263  -25.0051 C   0  0  0  0  0  0  0  0  0  0  0  0
  -21.0969   38.7713  -23.8777 N   0  0  0  0  0  0  0  0  0  0  0  0
  -22.2622   39.6377  -24.1025 C   0  0  0  0  0  0  0  0  0  0  0  0
  -21.7947   41.0660  -24.3112 C   0  0  0  0  0  0  0  0  0  0  0  0
  -18.7953   41.3521  -20.9350 N   0  0  0  0  0  0  0  0  0  0  0  0
  1  2  1  0
  2  3  1  0
  3  4  2  0
  4  5  1  0
  5  6  2  0
  6  7  1  0
  7  8  1  0
  8  9  2  0
  9 10  1  0
 10 11  2  0
 11 12  1  0
 12 13  2  0
 13 14  1  0
 13 15  1  0
 15 16  2  0
  9 17  1  0
 17 18  2  0
 18 19  1  0
 19 20  1  0
 20 21  1  0
 21 22  1  0
 22 23  1  0
 23 24  1  0
 24 25  1  0
  7 26  2  0
 26  3  1  0
 19  8  1  0
 25 20  1  0
 16 10  1  0
M  END
$$$$
