
     RDKit          3D

 30 33  0  0  0  0  0  0  0  0999 V2000
  -20.8047   41.2846  -19.8942 O   0  0  0  0  0  0  0  0  0  0  0  0
  -19.7954   41.7377  -20.4910 C   0  0  0  0  0  0  0  0  0  0  0  0
  -19.4483   43.0583  -20.2970 C   0  0  0  0  0  0  0  0  0  0  0  0
  -20.1577   43.9058  -19.4779 C   0  0  0  0  0  0  0  0  0  0  0  0
  -19.8048   45.2288  -19.2874 C   0  0  0  0  0  0  0  0  0  0  0  0
  -20.5289   46.0800  -18.4561 O   0  0  0  0  0  0  0  0  0  0  0  0
  -18.6910   45.6860  -19.9606 C   0  0  0  0  0  0  0  0  0  0  0  0
  -18.2987   47.0258  -19.7938 O   0  0  0  0  0  0  0  0  0  0  0  0
  -17.9799   44.8361  -20.7819 C   0  0  0  0  0  0  0  0  0  0  0  0
  -18.3332   43.5087  -20.9736 C   0  0  0  0  0  0  0  0  0  0  0  0
  -17.6456   42.7131  -21.7587 O   0  0  0  0  0  0  0  0  0  0  0  0
  -17.9373   41.4556  -21.9723 C   0  0  0  0  0  0  0  0  0  0  0  0
  -17.1565   40.6846  -22.8183 C   0  0  0  0  0  0  0  0  0  0  0  0
  -17.4681   39.3598  -23.0402 C   0  0  0  0  0  0  0  0  0  0  0  0
  -16.6881   38.5614  -23.8951 O   0  0  0  0  0  0  0  0  0  0  0  0
  -18.5730   38.8503  -22.3915 C   0  0  0  0  0  0  0  0  0  0  0  0
  -18.9206   37.4259  -22.6208 C   0  0  2  0  0  0  0  0  0  0  0  0
  -20.2061   37.3850  -23.1192 O   0  0  0  0  0  0  0  0  0  0  0  0
  -20.5707   36.1401  -23.6025 C   0  0  2  0  0  0  0  0  0  0  0  0
  -22.0541   35.9725  -23.3819 C   0  0  0  0  0  0  0  0  0  0  0  0
  -22.7080   35.5840  -24.5549 O   0  0  0  0  0  0  0  0  0  0  0  0
  -19.7489   35.0170  -23.0921 C   0  0  1  0  0  0  0  0  0  0  0  0
  -18.7108   34.7500  -23.9842 O   0  0  0  0  0  0  0  0  0  0  0  0
  -19.2219   35.1918  -21.7062 C   0  0  2  0  0  0  0  0  0  0  0  0
  -20.0694   34.6251  -20.7306 O   0  0  0  0  0  0  0  0  0  0  0  0
  -18.8468   36.6076  -21.3706 C   0  0  1  0  0  0  0  0  0  0  0  0
  -17.5401   36.6952  -20.8709 O   0  0  0  0  0  0  0  0  0  0  0  0
  -19.3540   39.6122  -21.5484 C   0  0  0  0  0  0  0  0  0  0  0  0
  -20.4796   39.0790  -20.8924 O   0  0  0  0  0  0  0  0  0  0  0  0
  -19.0429   40.9374  -21.3260 C   0  0  0  0  0  0  0  0  0  0  0  0
  1  2  2  0
  2  3  1  0
  3  4  2  0
  4  5  1  0
  5  6  1  0
  5  7  2  0
  7  8  1  0
  7  9  1  0
  9 10  2  0
 10 11  1  0
 11 12  1  0
 12 13  2  0
 13 14  1  0
 14 15  1  0
 14 16  2  0
 17 16  1  1
 17 18  1  0
 18 19  1  0
 19 20  1  1
 20 21  1  0
 19 22  1  0
 22 23  1  6
 22 24  1  0
 24 25  1  1
 24 26  1  0
 26 27  1  6
 16 28  1  0
 28 29  1  0
 28 30  2  0
 30  2  1  0
 10  3  1  0
 30 12  1  0
 26 17  1  0
M  END
$$$$
