
     RDKit          3D

 30 33  0  0  0  0  0  0  0  0999 V2000
  -21.7507   37.5076  -22.6053 C   0  0  0  0  0  0  0  0  0  0  0  0
  -20.4427   38.1513  -22.2870 C   0  0  0  0  0  0  0  0  0  0  0  0
  -19.2598   37.6821  -22.4982 O   0  0  0  0  0  0  0  0  0  0  0  0
  -18.3544   38.5076  -22.0975 N   0  0  0  0  0  0  0  0  0  0  0  0
  -18.9452   39.6312  -21.5699 C   0  0  0  0  0  0  0  0  0  0  0  0
  -18.2208   40.7547  -21.0326 C   0  0  0  0  0  0  0  0  0  0  0  0
  -17.5162   41.6659  -21.7754 C   0  0  0  0  0  0  0  0  0  0  0  0
  -16.8332   42.7342  -21.2175 C   0  0  0  0  0  0  0  0  0  0  0  0
  -16.8381   42.9252  -19.8548 C   0  0  0  0  0  0  0  0  0  0  0  0
  -17.5388   42.0238  -19.0867 C   0  0  0  0  0  0  0  0  0  0  0  0
  -18.2136   40.9649  -19.6615 C   0  0  0  0  0  0  0  0  0  0  0  0
  -19.0928   39.8430  -18.6286 Cl  0  0  0  0  0  0  0  0  0  0  0  0
  -20.2809   39.4123  -21.6873 C   0  0  0  0  0  0  0  0  0  0  0  0
  -21.3817   40.2536  -21.3002 C   0  0  0  0  0  0  0  0  0  0  0  0
  -22.0033   39.9762  -20.2430 O   0  0  0  0  0  0  0  0  0  0  0  0
  -21.7891   41.3723  -22.0635 N   0  0  0  0  0  0  0  0  0  0  0  0
  -22.7906   42.3026  -21.6113 C   0  0  0  0  0  0  0  0  0  0  0  0
  -22.4229   43.7284  -21.8479 C   0  0  0  0  0  0  0  0  0  0  0  0
  -21.5246   43.9686  -22.9405 N   0  0  0  0  0  0  0  0  0  0  0  0
  -21.6174   45.1217  -23.7823 C   0  0  0  0  0  0  0  0  0  0  0  0
  -20.6583   45.2887  -24.7653 C   0  0  0  0  0  0  0  0  0  0  0  0
  -20.7404   46.3994  -25.6097 C   0  0  0  0  0  0  0  0  0  0  0  0
  -21.7551   47.3161  -25.4717 C   0  0  0  0  0  0  0  0  0  0  0  0
  -21.8595   48.4603  -26.3230 N   0  0  0  0  0  4  0  0  0  0  0  0
  -22.7852   49.2583  -26.1369 O   0  0  0  0  0  0  0  0  0  0  0  0
  -20.9729   48.7060  -27.3387 O   0  0  0  0  0  1  0  0  0  0  0  0
  -22.7260   47.1659  -24.4921 C   0  0  0  0  0  0  0  0  0  0  0  0
  -22.6199   46.0635  -23.6765 C   0  0  0  0  0  0  0  0  0  0  0  0
  -20.4841   43.0070  -23.2215 C   0  0  0  0  0  0  0  0  0  0  0  0
  -21.1689   41.6412  -23.3744 C   0  0  0  0  0  0  0  0  0  0  0  0
  1  2  1  0
  2  3  1  0
  3  4  1  0
  4  5  2  0
  5  6  1  0
  6  7  2  0
  7  8  1  0
  8  9  2  0
  9 10  1  0
 10 11  2  0
 11 12  1  0
  5 13  1  0
 13 14  1  0
 14 15  2  0
 14 16  1  0
 16 17  1  0
 17 18  1  0
 18 19  1  0
 19 20  1  0
 20 21  2  0
 21 22  1  0
 22 23  2  0
 23 24  1  0
 24 25  2  0
 24 26  1  0
 23 27  1  0
 27 28  2  0
 19 29  1  0
 29 30  1  0
 13  2  2  0
 30 16  1  0
 11  6  1  0
 28 20  1  0
M  CHG  2  24   1  26  -1
M  END
$$$$
