
     RDKit          3D

 31 34  0  0  0  0  0  0  0  0999 V2000
  -18.5833   19.0457  -41.4999 C   0  0  0  0  0  0  0  0  0  0  0  0
  -17.3432   19.1068  -42.3451 C   0  0  0  0  0  0  0  0  0  0  0  0
  -16.1528   18.9417  -41.8477 C   0  0  0  0  0  0  0  0  0  0  0  0
  -15.8326   18.6730  -40.4528 C   0  0  0  0  0  0  0  0  0  0  0  0
  -15.6654   19.7438  -39.7118 O   0  0  0  0  0  0  0  0  0  0  0  0
  -15.6593   17.5180  -39.7104 N   0  0  0  0  0  0  0  0  0  0  0  0
  -15.6000   17.3688  -38.2969 C   0  0  0  0  0  0  0  0  0  0  0  0
  -15.4782   18.3729  -37.4049 C   0  0  0  0  0  0  0  0  0  0  0  0
  -15.4274   18.1260  -36.0101 C   0  0  0  0  0  0  0  0  0  0  0  0
  -15.3101   18.9303  -34.9008 C   0  0  0  0  0  0  0  0  0  0  0  0
  -15.3163   18.1456  -33.8194 N   0  0  0  0  0  0  0  0  0  0  0  0
  -15.4316   16.8766  -34.1741 N   0  0  0  0  0  0  0  0  0  0  0  0
  -15.5026   16.8391  -35.5356 C   0  0  0  0  0  0  0  0  0  0  0  0
  -15.6259   15.8106  -36.4220 C   0  0  0  0  0  0  0  0  0  0  0  0
  -15.6738   16.0695  -37.7767 C   0  0  0  0  0  0  0  0  0  0  0  0
  -15.7978   14.9731  -38.5713 F   0  0  0  0  0  0  0  0  0  0  0  0
  -14.9937   19.1238  -42.8001 C   0  0  0  0  0  0  0  0  0  0  0  0
  -13.6915   18.7353  -42.2809 C   0  0  0  0  0  0  0  0  0  0  0  0
  -13.3689   17.4181  -42.0167 C   0  0  0  0  0  0  0  0  0  0  0  0
  -12.1076   17.0629  -41.5396 C   0  0  0  0  0  0  0  0  0  0  0  0
  -11.1453   18.0237  -41.3185 C   0  0  0  0  0  0  0  0  0  0  0  0
   -9.7955   17.6201  -40.8052 C   0  0  0  0  0  0  0  0  0  0  0  0
   -9.9073   16.6567  -39.8285 F   0  0  0  0  0  0  0  0  0  0  0  0
   -9.1249   18.7420  -40.3198 F   0  0  0  0  0  0  0  0  0  0  0  0
   -9.0139   17.1141  -41.8252 F   0  0  0  0  0  0  0  0  0  0  0  0
  -11.4564   19.3387  -41.5785 C   0  0  0  0  0  0  0  0  0  0  0  0
  -12.7172   19.6840  -42.0542 C   0  0  0  0  0  0  0  0  0  0  0  0
  -15.3055   18.4698  -44.1169 C   0  0  0  0  0  0  0  0  0  0  0  0
  -16.4924   19.2748  -44.6263 C   0  0  0  0  0  0  0  0  0  0  0  0
  -16.3726   19.8297  -45.7216 O   0  0  0  0  0  0  0  0  0  0  0  0
  -17.6141   19.2906  -43.7652 N   0  0  0  0  0  0  0  0  0  0  0  0
  1  2  1  0
  2  3  2  0
  3  4  1  0
  4  5  2  0
  4  6  1  0
  6  7  1  0
  7  8  2  0
  8  9  1  0
  9 10  1  0
 10 11  2  0
 11 12  1  0
 12 13  1  0
 13 14  1  0
 14 15  2  0
 15 16  1  0
  3 17  1  0
 17 18  1  0
 18 19  2  0
 19 20  1  0
 20 21  2  0
 21 22  1  0
 22 23  1  0
 22 24  1  0
 22 25  1  0
 21 26  1  0
 26 27  2  0
 17 28  1  0
 28 29  1  0
 29 30  2  0
 29 31  1  0
 31  2  1  0
 15  7  1  0
 27 18  1  0
 13  9  2  0
M  END
$$$$
