
     RDKit          3D

 11 12  0  0  0  0  0  0  0  0999 V2000
  -27.7797   15.6271  -22.4475 O   0  0  0  0  0  0  0  0  0  0  0  0
  -28.7104   15.6710  -23.2900 C   0  0  0  0  0  0  0  0  0  0  0  0
  -29.4211   14.5202  -23.5868 O   0  0  0  0  0  0  0  0  0  0  0  0
  -29.0341   16.9522  -23.9534 C   0  0  0  0  0  0  0  0  0  0  0  0
  -28.3996   18.1624  -23.7942 C   0  0  0  0  0  0  0  0  0  0  0  0
  -28.9946   19.1222  -24.5857 C   0  0  0  0  0  0  0  0  0  0  0  0
  -29.0068   20.3724  -24.9793 O   0  0  0  0  0  0  0  0  0  0  0  0
  -29.9602   20.6044  -25.8472 C   0  0  0  0  0  0  0  0  0  0  0  0
  -30.6224   19.4178  -26.0368 C   0  0  0  0  0  0  0  0  0  0  0  0
  -30.0186   18.4706  -25.2417 C   0  0  0  0  0  0  0  0  0  0  0  0
  -30.0172   17.1667  -24.8407 N   0  0  0  0  0  0  0  0  0  0  0  0
  1  2  2  0
  2  3  1  0
  2  4  1  0
  4  5  2  0
  5  6  1  0
  6  7  1  0
  7  8  1  0
  8  9  2  0
  9 10  1  0
 10 11  1  0
 11  4  1  0
 10  6  2  0
M  END
$$$$
