
     RDKit          3D

 34 34  0  0  0  0  0  0  0  0999 V2000
  -16.3034   40.1486  -22.0879 N   0  0  0  0  0  0  0  0  0  0  0  0
  -17.7842   40.0931  -21.9944 C   0  0  1  0  0  0  0  0  0  0  0  0
  -18.2374   39.1837  -20.9435 C   0  0  0  0  0  0  0  0  0  0  0  0
  -19.7129   39.0613  -20.9560 C   0  0  0  0  0  0  0  0  0  0  0  0
  -20.5309   39.9036  -20.5130 O   0  0  0  0  0  0  0  0  0  0  0  0
  -20.2459   37.8488  -21.5388 N   0  0  0  0  0  0  0  0  0  0  0  0
  -19.3454   36.8701  -22.0563 C   0  0  0  0  0  0  0  0  0  0  0  0
  -20.1104   35.7700  -22.7949 C   0  0  0  0  0  0  0  0  0  0  0  0
  -21.1594   35.3245  -21.8663 N   0  0  0  0  0  0  0  0  0  0  0  0
  -21.9345   36.2399  -21.2654 C   0  0  0  0  0  0  0  0  0  0  0  0
  -22.8052   35.6000  -20.4778 N   0  0  0  0  0  0  0  0  0  0  0  0
  -22.5459   34.2947  -20.6111 N   0  0  0  0  0  0  0  0  0  0  0  0
  -21.5292   34.1093  -21.4678 C   0  0  0  0  0  0  0  0  0  0  0  0
  -20.9313   32.8183  -21.8914 C   0  0  0  0  0  0  0  0  0  0  0  0
  -20.4034   32.8870  -23.1635 F   0  0  0  0  0  0  0  0  0  0  0  0
  -19.9806   32.4260  -20.9838 F   0  0  0  0  0  0  0  0  0  0  0  0
  -21.9758   31.9013  -21.9445 F   0  0  0  0  0  0  0  0  0  0  0  0
  -21.6816   37.6644  -21.5780 C   0  0  0  0  0  0  0  0  0  0  0  0
  -18.3077   41.4936  -22.0519 C   0  0  0  0  0  0  0  0  0  0  0  0
  -17.7387   42.4296  -21.0588 C   0  0  0  0  0  0  0  0  0  0  0  0
  -16.7185   43.2750  -21.5820 C   0  0  0  0  0  0  0  0  0  0  0  0
  -16.0682   44.1937  -20.8006 C   0  0  0  0  0  0  0  0  0  0  0  0
  -15.1036   44.9897  -21.3081 F   0  0  0  0  0  0  0  0  0  0  0  0
  -16.3906   44.3236  -19.4688 C   0  0  0  0  0  0  0  0  0  0  0  0
  -15.7321   45.2467  -18.6990 F   0  0  0  0  0  0  0  0  0  0  0  0
  -17.3636   43.5140  -18.9809 C   0  0  0  0  0  0  0  0  0  0  0  0
  -18.0567   42.5582  -19.7464 C   0  0  0  0  0  0  0  0  0  0  0  0
  -19.0128   41.8210  -19.1539 F   0  0  0  0  0  0  0  0  0  0  0  0
  -18.9700   38.8466  -21.0166 O   0  0  0  0  0  0  0  0  0  0  0  0
  -20.4503   39.5081  -21.6532 O   0  0  0  0  0  0  0  0  0  0  0  0
  -19.0884   38.8847  -21.5166 P   0  0  0  0  0  5  0  0  0  0  0  0
  -18.6237   38.6578  -19.9260 O   0  0  0  0  0  0  0  0  0  0  0  0
  -18.0024   39.8912  -22.3633 O   0  0  0  0  0  0  0  0  0  0  0  0
  -19.0297   37.3816  -22.3091 O   0  0  0  0  0  0  0  0  0  0  0  0
  2  1  1  1
  2  3  1  0
  3  4  1  0
  4  5  2  0
  4  6  1  0
  6  7  1  0
  7  8  1  0
  8  9  1  0
  9 10  1  0
 10 11  2  0
 11 12  1  0
 12 13  2  0
 13 14  1  0
 14 15  1  0
 14 16  1  0
 14 17  1  0
 10 18  1  0
  2 19  1  0
 19 20  1  0
 20 21  2  0
 21 22  1  0
 22 23  1  0
 22 24  2  0
 24 25  1  0
 24 26  1  0
 26 27  2  0
 27 28  1  0
 30 31  2  0
 31 32  1  0
 31 33  1  0
 31 34  1  0
 18  6  1  0
 27 20  1  0
 13  9  1  0
M  END
$$$$
