
     RDKit          3D

 24 27  0  0  0  0  0  0  0  0999 V2000
  -19.6556   38.2526  -21.0678 Cl  0  0  0  0  0  0  0  0  0  0  0  0
  -19.0007   39.8731  -21.0931 C   0  0  0  0  0  0  0  0  0  0  0  0
  -19.5661   40.7871  -21.9588 C   0  0  0  0  0  0  0  0  0  0  0  0
  -19.0422   42.0656  -21.9729 C   0  0  0  0  0  0  0  0  0  0  0  0
  -19.6021   42.9993  -22.8191 C   0  0  0  0  0  0  0  0  0  0  0  0
  -20.6791   42.7568  -23.7044 N   0  0  0  0  0  0  0  0  0  0  0  0
  -21.2789   43.8777  -24.4055 C   0  0  0  0  0  0  0  0  0  0  0  0
  -22.6989   43.6192  -24.7914 C   0  0  0  0  0  0  0  0  0  0  0  0
  -22.6806   42.9708  -26.1537 C   0  0  0  0  0  0  0  0  0  0  0  0
  -21.2378   42.8074  -26.4920 C   0  0  0  0  0  0  0  0  0  0  0  0
  -20.5920   43.9699  -25.7679 C   0  0  0  0  0  0  0  0  0  0  0  0
  -19.0334   44.2444  -22.7592 N   0  0  0  0  0  0  0  0  0  0  0  0
  -18.0392   44.5520  -21.9743 N   0  0  0  0  0  0  0  0  0  0  0  0
  -17.4551   43.6562  -21.1214 C   0  0  0  0  0  0  0  0  0  0  0  0
  -16.3466   44.0982  -20.2730 C   0  0  0  0  0  0  0  0  0  0  0  0
  -15.2764   44.8449  -20.6963 C   0  0  0  0  0  0  0  0  0  0  0  0
  -14.2478   45.2152  -19.8642 C   0  0  0  0  0  0  0  0  0  0  0  0
  -14.2525   44.8542  -18.5823 N   0  0  0  0  0  0  0  0  0  0  0  0
  -15.2948   44.1126  -18.1147 C   0  0  0  0  0  0  0  0  0  0  0  0
  -16.3333   43.7332  -18.9374 C   0  0  0  0  0  0  0  0  0  0  0  0
  -17.9792   42.3863  -21.1291 C   0  0  0  0  0  0  0  0  0  0  0  0
  -17.4336   41.4460  -20.2696 C   0  0  0  0  0  0  0  0  0  0  0  0
  -17.9562   40.1699  -20.2556 C   0  0  0  0  0  0  0  0  0  0  0  0
  -17.2555   38.9873  -19.1630 Cl  0  0  0  0  0  0  0  0  0  0  0  0
  1  2  1  0
  2  3  2  0
  3  4  1  0
  4  5  2  0
  5  6  1  0
  6  7  1  0
  7  8  1  0
  8  9  1  0
  9 10  1  0
 10 11  1  0
  5 12  1  0
 12 13  2  0
 13 14  1  0
 14 15  1  0
 15 16  2  0
 16 17  1  0
 17 18  2  0
 18 19  1  0
 19 20  2  0
 14 21  2  0
 21 22  1  0
 22 23  2  0
 23 24  1  0
 23  2  1  0
 21  4  1  0
 11  7  1  0
 20 15  1  0
M  END
$$$$
