
     RDKit          3D

 25 25  0  0  0  0  0  0  0  0999 V2000
  -33.8028   11.4441  -17.2888 C   0  0  0  0  0  0  0  0  0  0  0  0
  -32.2605   11.3579  -17.4169 C   0  0  0  0  0  0  0  0  0  0  0  0
  -31.9257    9.8682  -17.4669 C   0  0  0  0  0  0  0  0  0  0  0  0
  -31.8221   12.0572  -18.6511 C   0  0  0  0  0  0  0  0  0  0  0  0
  -31.5520   11.3223  -19.8910 C   0  0  2  0  0  0  0  0  0  0  0  0
  -30.1463   10.7986  -19.8264 N   0  0  0  0  0  0  0  0  0  0  0  0
  -29.0551   11.6064  -20.2052 C   0  0  0  0  0  0  0  0  0  0  0  0
  -29.2613   12.7966  -20.5448 O   0  0  0  0  0  0  0  0  0  0  0  0
  -27.6538   11.0611  -20.2072 C   0  0  1  0  0  0  0  0  0  0  0  0
  -26.7702   11.5719  -21.1764 O   0  0  0  0  0  0  0  0  0  0  0  0
  -26.5184   11.9041  -19.8661 C   0  0  2  0  0  0  0  0  0  0  0  0
  -25.3742   11.2398  -19.1617 C   0  0  0  0  0  0  0  0  0  0  0  0
  -25.1853   10.0232  -19.4301 O   0  0  0  0  0  0  0  0  0  0  0  0
  -24.5665   11.8997  -18.2722 O   0  0  0  0  0  0  0  0  0  0  0  0
  -31.6965   11.8709  -21.2118 C   0  0  0  0  0  0  0  0  0  0  0  0
  -32.7783   12.4984  -21.5284 O   0  0  0  0  0  0  0  0  0  0  0  0
  -30.7460   11.8355  -22.2989 N   0  0  0  0  0  0  0  0  0  0  0  0
  -30.9005   12.5749  -23.5013 C   0  0  0  0  0  0  0  0  0  0  0  0
  -31.1559   14.0222  -23.4513 C   0  0  0  0  0  0  0  0  0  0  0  0
  -31.1744   14.7811  -24.7238 C   0  0  0  0  0  0  0  0  0  0  0  0
  -31.4617   16.2562  -24.5397 C   0  0  0  0  0  0  0  0  0  0  0  0
  -31.4685   16.8888  -25.8426 N   0  0  0  0  0  0  0  0  0  0  0  0
  -30.2828   16.9693  -26.6342 C   0  0  0  0  0  0  0  0  0  0  0  0
  -30.4000   16.8747  -27.9349 N   0  0  0  0  0  0  0  0  0  0  0  0
  -29.0275   17.1464  -26.0118 N   0  0  0  0  0  0  0  0  0  0  0  0
  1  2  1  0
  2  3  1  0
  2  4  1  0
  5  4  1  1
  5  6  1  0
  6  7  1  0
  7  8  2  0
  9  7  1  6
  9 10  1  0
 10 11  1  0
 11 12  1  1
 12 13  2  0
 12 14  1  0
  5 15  1  0
 15 16  2  0
 15 17  1  0
 17 18  1  0
 18 19  1  0
 19 20  1  0
 20 21  1  0
 21 22  1  0
 22 23  1  0
 23 24  2  0
 23 25  1  0
 11  9  1  0
M  END
$$$$
