
     RDKit          3D

 11  9  0  0  0  0  0  0  0  0999 V2000
  -16.5685   29.8325  -23.9187 C   0  0  0  0  0  0  0  0  0  0  0  0
  -15.8702   30.8472  -23.0767 C   0  0  0  0  0  0  0  0  0  0  0  0
  -14.6319   31.2452  -23.7492 N   0  0  0  0  0  0  0  0  0  0  0  0
  -16.6664   32.0946  -22.8418 C   0  0  0  0  0  0  0  0  0  0  0  0
  -17.9485   31.8386  -22.1565 C   0  0  0  0  0  0  0  0  0  0  0  0
  -18.1583   31.8303  -20.7954 C   0  0  0  0  0  0  0  0  0  0  0  0
  -19.4600   31.5583  -20.5476 N   0  0  0  0  0  0  0  0  0  0  0  0
  -20.0534   31.3991  -21.7408 C   0  0  0  0  0  0  0  0  0  0  0  0
  -19.1328   31.5698  -22.7230 N   0  0  0  0  0  0  0  0  0  0  0  0
  -17.7877   31.4409  -22.2488 Cl  0  0  0  0  0  0  0  0  0  0  0  0
  -17.7871   31.4407  -22.2491 Cl  0  0  0  0  0  0  0  0  0  0  0  0
  1  2  1  0
  2  3  1  0
  2  4  1  0
  4  5  1  0
  5  6  2  0
  6  7  1  0
  7  8  1  0
  8  9  2  0
  9  5  1  0
M  END
$$$$
