
     RDKit          3D

 28 31  0  0  0  0  0  0  0  0999 V2000
  -23.1792   38.3374  -22.8863 C   0  0  0  0  0  0  0  0  0  0  0  0
  -22.9467   38.9184  -21.6179 O   0  0  0  0  0  0  0  0  0  0  0  0
  -21.6772   39.1796  -21.1586 C   0  0  0  0  0  0  0  0  0  0  0  0
  -20.7580   39.8291  -21.9538 C   0  0  0  0  0  0  0  0  0  0  0  0
  -19.4746   40.0697  -21.4343 C   0  0  0  0  0  0  0  0  0  0  0  0
  -19.1509   39.6686  -20.1735 C   0  0  0  0  0  0  0  0  0  0  0  0
  -20.0973   39.0056  -19.3683 C   0  0  0  0  0  0  0  0  0  0  0  0
  -21.3497   38.7725  -19.8799 C   0  0  0  0  0  0  0  0  0  0  0  0
  -22.2960   38.1252  -19.1142 O   0  0  0  0  0  0  0  0  0  0  0  0
  -21.9362   37.3008  -18.0253 C   0  0  0  0  0  0  0  0  0  0  0  0
  -17.7726   40.0365  -19.8867 C   0  0  0  0  0  0  0  0  0  0  0  0
  -17.0983   39.5691  -18.9475 O   0  0  0  0  0  0  0  0  0  0  0  0
  -17.3770   41.0358  -20.9068 C   0  0  0  0  0  0  0  0  0  0  0  0
  -17.6639   42.4473  -20.4476 C   0  0  0  0  0  0  0  0  0  0  0  0
  -16.8229   43.4611  -21.1994 C   0  0  0  0  0  0  0  0  0  0  0  0
  -17.3773   44.8239  -21.1930 C   0  0  0  0  0  0  0  0  0  0  0  0
  -16.5861   45.8917  -20.5036 C   0  0  0  0  0  0  0  0  0  0  0  0
  -15.2129   45.5819  -20.3150 N   0  0  0  0  0  0  0  0  0  0  0  0
  -14.6073   46.5447  -19.4277 C   0  0  0  0  0  0  0  0  0  0  0  0
  -14.6895   46.0532  -18.0127 C   0  0  0  0  0  0  0  0  0  0  0  0
  -15.7586   46.3703  -17.2058 C   0  0  0  0  0  0  0  0  0  0  0  0
  -15.7747   45.8979  -15.9120 C   0  0  0  0  0  0  0  0  0  0  0  0
  -14.7450   45.1261  -15.4378 C   0  0  0  0  0  0  0  0  0  0  0  0
  -13.6690   44.8119  -16.2643 C   0  0  0  0  0  0  0  0  0  0  0  0
  -13.6460   45.2805  -17.5573 C   0  0  0  0  0  0  0  0  0  0  0  0
  -15.0462   44.2649  -19.7244 C   0  0  0  0  0  0  0  0  0  0  0  0
  -15.4003   43.2851  -20.7924 C   0  0  0  0  0  0  0  0  0  0  0  0
  -18.3102   40.7375  -22.0600 C   0  0  0  0  0  0  0  0  0  0  0  0
  1  2  1  0
  2  3  1  0
  3  4  2  0
  4  5  1  0
  5  6  2  0
  6  7  1  0
  7  8  2  0
  8  9  1  0
  9 10  1  0
  6 11  1  0
 11 12  2  0
 11 13  1  0
 13 14  1  0
 14 15  1  0
 15 16  1  0
 16 17  1  0
 17 18  1  0
 18 19  1  0
 19 20  1  0
 20 21  2  0
 21 22  1  0
 22 23  2  0
 23 24  1  0
 24 25  2  0
 18 26  1  0
 26 27  1  0
 13 28  1  0
  8  3  1  0
 27 15  1  0
 28  5  1  0
 25 20  1  0
M  END
$$$$
