
     RDKit          3D

 35 36  0  0  0  0  0  0  0  0999 V2000
  -29.0014   12.1514  -22.7205 C   0  0  0  0  0  0  0  0  0  0  0  0
  -29.5676   13.4134  -22.1976 C   0  0  0  0  0  0  0  0  0  0  0  0
  -30.1102   13.4346  -20.9969 C   0  0  0  0  0  0  0  0  0  0  0  0
  -30.6373   12.2417  -20.3596 C   0  0  0  0  0  0  0  0  0  0  0  0
  -29.8673   11.2348  -20.2141 O   0  0  0  0  0  0  0  0  0  0  0  0
  -31.9159   12.0984  -19.8901 O   0  0  0  0  0  0  0  0  0  0  0  0
  -32.3777   11.2733  -18.8766 C   0  0  0  0  0  0  0  0  0  0  0  0
  -33.2338   10.1696  -19.4546 C   0  0  0  0  0  0  0  0  0  0  0  0
  -33.6418    9.1780  -18.3853 C   0  0  0  0  0  0  0  0  0  0  0  0
  -34.4273    8.0253  -18.9657 C   0  0  0  0  0  0  0  0  0  0  0  0
  -34.7759    7.0256  -17.8625 C   0  0  0  0  0  0  0  0  0  0  0  0
  -35.4113    5.8216  -18.4747 C   0  0  0  0  0  0  0  0  0  0  0  0
  -36.7659    5.4508  -18.0123 C   0  0  0  0  0  0  0  0  0  0  0  0
  -37.2260    4.0736  -18.3399 C   0  0  0  0  0  0  0  0  0  0  0  0
  -37.5789    3.7812  -19.7174 C   0  0  0  0  0  0  0  0  0  0  0  0
  -37.8612    2.5921  -20.0643 O   0  0  0  0  0  0  0  0  0  0  0  0
  -37.6074    4.8082  -20.6558 O   0  0  0  0  0  0  0  0  0  0  0  0
  -29.5608   14.6767  -22.9690 C   0  0  0  0  0  0  0  0  0  0  0  0
  -28.2705   15.4413  -22.8073 C   0  0  2  0  0  0  0  0  0  0  0  0
  -28.5328   16.7736  -23.0383 O   0  0  0  0  0  0  0  0  0  0  0  0
  -27.4545   17.6181  -22.9066 C   0  0  0  0  0  0  0  0  0  0  0  0
  -26.1420   16.9162  -23.1287 C   0  0  2  0  0  0  0  0  0  0  0  0
  -25.0115   17.8651  -23.3972 C   0  0  0  0  0  0  0  0  0  0  0  0
  -25.1323   18.5310  -24.7500 C   0  0  2  0  0  0  0  0  0  0  0  0
  -25.5397   19.9398  -24.5009 O   0  0  0  0  0  0  0  0  0  0  0  0
  -26.3930   19.0192  -25.2025 C   0  0  1  0  0  0  0  0  0  0  0  0
  -26.6755   19.4574  -26.5981 C   0  0  1  0  0  0  0  0  0  0  0  0
  -27.6025   18.4283  -27.2578 C   0  0  0  0  0  0  0  0  0  0  0  0
  -27.3392   20.8377  -26.6603 C   0  0  2  0  0  0  0  0  0  0  0  0
  -26.4427   21.8486  -25.9736 C   0  0  0  0  0  0  0  0  0  0  0  0
  -28.5314   20.8082  -25.9487 O   0  0  0  0  0  0  0  0  0  0  0  0
  -26.3594   15.9407  -24.2630 C   0  0  1  0  0  0  0  0  0  0  0  0
  -25.1648   15.3925  -24.7319 O   0  0  0  0  0  0  0  0  0  0  0  0
  -27.2478   14.8354  -23.7397 C   0  0  1  0  0  0  0  0  0  0  0  0
  -26.3986   13.9674  -23.0141 O   0  0  0  0  0  0  0  0  0  0  0  0
  1  2  1  0
  2  3  2  0
  3  4  1  0
  4  5  2  0
  4  6  1  0
  6  7  1  0
  7  8  1  0
  8  9  1  0
  9 10  1  0
 10 11  1  0
 11 12  1  0
 12 13  1  0
 13 14  1  0
 14 15  1  0
 15 16  2  0
 15 17  1  0
  2 18  1  0
 19 18  1  6
 19 20  1  0
 20 21  1  0
 21 22  1  0
 22 23  1  6
 24 23  1  1
 24 25  1  0
 26 25  1  1
 26 27  1  0
 27 28  1  1
 27 29  1  0
 29 30  1  1
 29 31  1  0
 22 32  1  0
 32 33  1  1
 32 34  1  0
 34 35  1  1
 34 19  1  0
 26 24  1  0
M  END
$$$$
