
     RDKit          3D

 37 40  0  0  0  0  0  0  0  0999 V2000
    1.4701   13.9438  -14.0777 C   0  0  0  0  0  0  0  0  0  0  0  0
    2.2628   15.2586  -13.9730 C   0  0  0  0  0  0  0  0  0  0  0  0
    1.2924   16.3792  -14.1497 C   0  0  0  0  0  0  0  0  0  0  0  0
    1.9071   17.6113  -14.0875 O   0  0  0  0  0  0  0  0  0  0  0  0
    2.8263   18.1032  -14.9792 C   0  0  0  0  0  0  0  0  0  0  0  0
    3.2695   17.4739  -16.1117 C   0  0  0  0  0  0  0  0  0  0  0  0
    4.2163   18.0555  -16.9585 C   0  0  0  0  0  0  0  0  0  0  0  0
    4.7551   19.2886  -16.7084 C   0  0  0  0  0  0  0  0  0  0  0  0
    5.7271   19.9921  -17.5477 C   0  0  0  0  0  0  0  0  0  0  0  0
    5.1698   21.0374  -18.4574 C   0  0  0  0  0  0  0  0  0  0  0  0
    4.1979   20.5576  -19.4358 C   0  0  0  0  0  0  0  0  0  0  0  0
    3.7511   19.3146  -19.6165 N   0  0  0  0  0  0  0  0  0  0  0  0
    2.8522   19.2740  -20.6303 C   0  0  0  0  0  0  0  0  0  0  0  0
    2.1118   18.2641  -21.2066 C   0  0  0  0  0  0  0  0  0  0  0  0
    1.2456   18.5468  -22.2679 C   0  0  0  0  0  0  0  0  0  0  0  0
    0.4537   17.5114  -22.8946 C   0  0  0  0  0  0  0  0  0  0  0  0
   -0.8057   17.1270  -22.5250 C   0  0  0  0  0  0  0  0  0  0  0  0
   -1.5929   17.6914  -21.4232 C   0  0  0  0  0  0  0  0  0  0  0  0
   -1.1815   16.1321  -23.3670 N   0  0  0  0  0  0  0  0  0  0  0  0
   -0.2187   15.9102  -24.2075 O   0  0  0  0  0  0  0  0  0  0  0  0
    0.8039   16.7297  -23.9588 C   0  0  0  0  0  0  0  0  0  0  0  0
    2.0736   16.7613  -24.7165 C   0  0  0  0  0  0  0  0  0  0  0  0
    1.1930   19.8714  -22.6779 C   0  0  0  0  0  0  0  0  0  0  0  0
    1.9279   20.8791  -22.1071 C   0  0  0  0  0  0  0  0  0  0  0  0
    2.7821   20.5828  -21.0559 C   0  0  0  0  0  0  0  0  0  0  0  0
    3.5863   21.3855  -20.3514 N   0  0  0  0  0  0  0  0  0  0  0  0
    3.8093   22.8140  -20.4786 C   0  0  0  0  0  0  0  0  0  0  0  0
    2.8590   23.5923  -19.6298 C   0  0  0  0  0  0  0  0  0  0  0  0
    2.9759   24.9903  -19.6666 N   0  0  0  0  0  0  0  0  0  0  0  0
    1.9838   25.5854  -18.7911 C   0  0  0  0  0  0  0  0  0  0  0  0
    2.0482   27.0955  -18.8791 C   0  0  0  0  0  0  0  0  0  0  0  0
    3.3100   27.4894  -18.4068 O   0  0  0  0  0  0  0  0  0  0  0  0
    4.2514   27.0595  -19.3433 C   0  0  0  0  0  0  0  0  0  0  0  0
    4.2535   25.5459  -19.3320 C   0  0  0  0  0  0  0  0  0  0  0  0
    4.3095   19.9426  -15.5537 C   0  0  0  0  0  0  0  0  0  0  0  0
    3.3868   19.3676  -14.7331 C   0  0  0  0  0  0  0  0  0  0  0  0
    2.6997   19.7089  -18.3997 Cl  0  0  0  0  0  0  0  0  0  0  0  0
  1  2  1  0
  2  3  1  0
  3  4  1  0
  4  5  1  0
  5  6  2  0
  6  7  1  0
  7  8  2  0
  8  9  1  0
  9 10  1  0
 10 11  1  0
 11 12  2  0
 12 13  1  0
 13 14  2  0
 14 15  1  0
 15 16  1  0
 16 17  1  0
 17 18  1  0
 17 19  2  0
 19 20  1  0
 20 21  1  0
 21 22  1  0
 15 23  2  0
 23 24  1  0
 24 25  2  0
 25 26  1  0
 26 27  1  0
 27 28  1  0
 28 29  1  0
 29 30  1  0
 30 31  1  0
 31 32  1  0
 32 33  1  0
 33 34  1  0
  8 35  1  0
 35 36  2  0
 36  5  1  0
 26 11  1  0
 34 29  1  0
 25 13  1  0
 21 16  2  0
M  END
$$$$
