
     RDKit          3D

  8  4  0  0  0  0  0  0  0  0999 V2000
  -18.6642   36.1627  -20.2109 O   0  0  0  0  0  0  0  0  0  0  0  0
  -18.2917   37.5341  -21.2562 V   0  0  0  0  0  5  0  0  0  0  0  0
  -18.0892   39.1267  -20.1068 O   0  0  0  0  0  1  0  0  0  0  0  0
  -16.6465   37.2303  -22.2694 O   0  0  0  0  0  1  0  0  0  0  0  0
  -19.7608   37.8430  -22.5158 O   0  0  0  0  0  1  0  0  0  0  0  0
  -18.2905   37.5794  -21.2718 Na  0  0  0  0  0 15  0  0  0  0  0  0
  -18.2905   37.5794  -21.2718 Na  0  0  0  0  0 15  0  0  0  0  0  0
  -18.2905   37.5794  -21.2718 Na  0  0  0  0  0 15  0  0  0  0  0  0
  1  2  2  0
  2  3  1  0
  2  4  1  0
  2  5  1  0
M  CHG  6   3  -1   4  -1   5  -1   6   1   7   1   8   1
M  RAD  1   2   2
M  END
$$$$
