
     RDKit          3D

 21 23  0  0  0  0  0  0  0  0999 V2000
  -19.0372   13.5384  -29.6251 C   0  0  0  0  0  0  0  0  0  0  0  0
  -18.4366   14.9125  -29.7136 C   0  0  0  0  0  0  0  0  0  0  0  0
  -17.2162   15.3507  -29.2606 C   0  0  0  0  0  0  0  0  0  0  0  0
  -16.1956   14.5774  -28.5601 C   0  0  0  0  0  0  0  0  0  0  0  0
  -15.0575   14.1982  -29.3396 N   0  0  0  0  0  0  0  0  0  0  0  0
  -15.0233   13.0482  -30.0653 C   0  0  0  0  0  0  0  0  0  0  0  0
  -13.7975   12.9599  -30.6995 C   0  0  0  0  0  0  0  0  0  0  0  0
  -13.1013   14.0404  -30.3620 N   0  0  0  0  0  0  0  0  0  0  0  0
  -13.8650   14.7745  -29.5481 C   0  0  0  0  0  0  0  0  0  0  0  0
  -17.1307   16.7010  -29.5917 C   0  0  0  0  0  0  0  0  0  0  0  0
  -16.1681   17.6713  -29.4056 C   0  0  0  0  0  0  0  0  0  0  0  0
  -16.3072   18.9763  -29.8293 C   0  0  0  0  0  0  0  0  0  0  0  0
  -17.4921   19.2992  -30.4750 C   0  0  0  0  0  0  0  0  0  0  0  0
  -18.4732   18.3477  -30.6748 C   0  0  0  0  0  0  0  0  0  0  0  0
  -18.3015   17.0437  -30.2359 C   0  0  0  0  0  0  0  0  0  0  0  0
  -19.0881   15.9377  -30.3011 N   0  0  0  0  0  0  0  0  0  0  0  0
  -20.3829   15.9231  -30.9033 C   0  0  0  0  0  0  0  0  0  0  0  0
  -21.4703   16.5580  -30.0756 C   0  0  0  0  0  0  0  0  0  0  0  0
  -22.6016   15.6004  -29.9939 C   0  0  0  0  0  0  0  0  0  0  0  0
  -23.7930   15.9994  -29.8966 O   0  0  0  0  0  0  0  0  0  0  0  0
  -22.4298   14.2247  -30.0181 O   0  0  0  0  0  0  0  0  0  0  0  0
  1  2  1  0
  2  3  2  0
  3  4  1  0
  4  5  1  0
  5  6  1  0
  6  7  2  0
  7  8  1  0
  8  9  2  0
  3 10  1  0
 10 11  2  0
 11 12  1  0
 12 13  2  0
 13 14  1  0
 14 15  2  0
 15 16  1  0
 16 17  1  0
 17 18  1  0
 18 19  1  0
 19 20  2  0
 19 21  1  0
 16  2  1  0
  9  5  1  0
 15 10  1  0
M  END
$$$$
