
     RDKit          3D

 29 31  0  0  0  0  0  0  0  0999 V2000
  -12.1391   43.1173  -16.1330 C   0  0  0  0  0  0  0  0  0  0  0  0
  -12.9695   43.4415  -17.0562 O   0  0  0  0  0  0  0  0  0  0  0  0
  -13.8153   43.7591  -17.9900 C   0  0  0  0  0  0  0  0  0  0  0  0
  -14.7892   42.8544  -18.4407 C   0  0  0  0  0  0  0  0  0  0  0  0
  -15.7083   43.1579  -19.3770 C   0  0  0  0  0  0  0  0  0  0  0  0
  -16.5556   42.3396  -19.9850 N   0  0  0  0  0  0  0  0  0  0  0  0
  -17.3531   42.5853  -21.0034 C   0  0  0  0  0  0  0  0  0  0  0  0
  -18.2010   41.6168  -21.6533 N   0  0  0  0  0  0  0  0  0  0  0  0
  -19.4254   42.1276  -22.1941 C   0  0  0  0  0  0  0  0  0  0  0  0
  -20.5212   41.1231  -22.3434 C   0  0  0  0  0  0  0  0  0  0  0  0
  -20.1820   39.7771  -22.0961 N   0  0  0  0  0  0  0  0  0  0  0  0
  -21.1230   38.7378  -22.0891 C   0  0  0  0  0  0  0  0  0  0  0  0
  -22.3470   39.1734  -22.5082 O   0  0  0  0  0  0  0  0  0  0  0  0
  -21.0047   37.3924  -21.7269 C   0  0  0  0  0  0  0  0  0  0  0  0
  -20.1525   36.4851  -22.0487 C   0  0  0  0  0  0  0  0  0  0  0  0
  -20.3948   35.2740  -21.4176 C   0  0  0  0  0  0  0  0  0  0  0  0
  -21.4785   35.4832  -20.6891 C   0  0  0  0  0  0  0  0  0  0  0  0
  -21.9307   36.8192  -20.8354 O   0  0  0  0  0  0  0  0  0  0  0  0
  -18.7957   39.2755  -21.9203 C   0  0  0  0  0  0  0  0  0  0  0  0
  -17.7592   40.2972  -21.8234 C   0  0  0  0  0  0  0  0  0  0  0  0
  -17.3475   43.8452  -21.5523 N   0  0  0  0  0  0  0  0  0  0  0  0
  -16.4979   44.7707  -20.9921 C   0  0  0  0  0  0  0  0  0  0  0  0
  -16.4212   46.0998  -21.4491 N   0  0  0  0  0  0  0  0  0  0  0  0
  -15.7096   44.4224  -19.9335 C   0  0  0  0  0  0  0  0  0  0  0  0
  -14.7677   45.3326  -19.4809 C   0  0  0  0  0  0  0  0  0  0  0  0
  -13.8251   45.0384  -18.5448 C   0  0  0  0  0  0  0  0  0  0  0  0
  -12.8322   45.9070  -18.1104 O   0  0  0  0  0  0  0  0  0  0  0  0
  -12.9096   47.1729  -18.8811 C   0  0  0  0  0  0  0  0  0  0  0  0
  -16.6576   42.3330  -20.1335 Cl  0  0  0  0  0  0  0  0  0  0  0  0
  1  2  1  0
  2  3  1  0
  3  4  2  0
  4  5  1  0
  5  6  2  0
  6  7  1  0
  7  8  1  0
  8  9  1  0
  9 10  1  0
 10 11  1  0
 11 12  1  0
 12 13  2  0
 12 14  1  0
 14 15  2  0
 15 16  1  0
 16 17  2  0
 17 18  1  0
 11 19  1  0
 19 20  1  0
  7 21  2  0
 21 22  1  0
 22 23  1  0
 22 24  2  0
 24 25  1  0
 25 26  2  0
 26 27  1  0
 27 28  1  0
 26  3  1  0
 24  5  1  0
 20  8  1  0
 18 14  1  0
M  END
$$$$
