
     RDKit          3D

 29 33  0  0  0  0  0  0  0  0999 V2000
  -19.9214   45.6638  -22.8424 C   0  0  0  0  0  0  0  0  0  0  0  0
  -19.6405   46.2749  -21.4913 C   0  0  2  0  0  0  0  0  0  0  0  0
  -19.9807   47.7534  -21.5788 C   0  0  0  0  0  0  0  0  0  0  0  0
  -19.4321   48.4832  -20.5579 O   0  0  0  0  0  0  0  0  0  0  0  0
  -18.0682   48.4653  -20.4541 C   0  0  0  0  0  0  0  0  0  0  0  0
  -17.4431   47.3916  -21.3172 C   0  0  0  0  0  0  0  0  0  0  0  0
  -18.2455   46.2019  -21.1550 N   0  0  0  0  0  0  0  0  0  0  0  0
  -17.6008   45.0169  -20.6669 C   0  0  0  0  0  0  0  0  0  0  0  0
  -18.2881   43.8276  -20.5503 C   0  0  0  0  0  0  0  0  0  0  0  0
  -17.6736   42.6743  -20.0791 C   0  0  0  0  0  0  0  0  0  0  0  0
  -18.4636   41.4303  -19.9621 C   0  0  0  0  0  0  0  0  0  0  0  0
  -19.0530   40.6857  -21.4755 S   0  0  2  0  0  6  0  0  0  0  0  0
  -17.6762   39.9611  -22.3430 C   0  0  0  0  0  0  0  0  0  0  0  0
  -19.8145   41.6791  -22.3619 N   0  0  0  0  0  0  0  0  0  0  0  0
  -19.9182   39.5060  -21.0646 O   0  0  0  0  0  0  0  0  0  0  0  0
  -18.2556   40.5160  -18.8310 C   0  0  0  0  0  0  0  0  0  0  0  0
  -19.5049   41.3937  -18.8495 C   0  0  0  0  0  0  0  0  0  0  0  0
  -16.3730   42.7911  -19.7455 N   0  0  0  0  0  0  0  0  0  0  0  0
  -15.6542   43.9139  -19.8358 C   0  0  0  0  0  0  0  0  0  0  0  0
  -14.2524   44.0504  -19.4594 C   0  0  0  0  0  0  0  0  0  0  0  0
  -13.3507   43.0228  -19.6445 C   0  0  0  0  0  0  0  0  0  0  0  0
  -12.0246   43.1574  -19.2955 C   0  0  0  0  0  0  0  0  0  0  0  0
  -11.5616   44.3097  -18.7566 N   0  0  0  0  0  0  0  0  0  0  0  0
  -12.4165   45.3373  -18.5616 C   0  0  0  0  0  0  0  0  0  0  0  0
  -12.2232   46.5681  -18.0611 N   0  0  0  0  0  0  0  0  0  0  0  0
  -13.3688   47.2637  -18.0622 C   0  0  0  0  0  0  0  0  0  0  0  0
  -14.3307   46.4139  -18.5950 C   0  0  0  0  0  0  0  0  0  0  0  0
  -13.7670   45.2052  -18.9152 C   0  0  0  0  0  0  0  0  0  0  0  0
  -16.3176   45.0193  -20.3087 N   0  0  0  0  0  0  0  0  0  0  0  0
  2  1  1  6
  2  3  1  0
  3  4  1  0
  4  5  1  0
  5  6  1  0
  6  7  1  0
  7  8  1  0
  8  9  2  0
  9 10  1  0
 10 11  1  0
 11 12  1  0
 12 13  1  6
 12 14  2  0
 12 15  2  0
 11 16  1  0
 16 17  1  0
 10 18  2  0
 18 19  1  0
 19 20  1  0
 20 21  2  0
 21 22  1  0
 22 23  2  0
 23 24  1  0
 24 25  1  0
 25 26  1  0
 26 27  2  0
 27 28  1  0
 19 29  2  0
  7  2  1  0
 29  8  1  0
 17 11  1  0
 28 20  1  0
 28 24  2  0
M  END
$$$$
