
     RDKit          3D

 28 31  0  0  0  0  0  0  0  0999 V2000
  -26.3206   18.2435  -24.6472 O   0  0  0  0  0  0  0  0  0  0  0  0
  -25.8804   17.2673  -23.9876 C   0  0  0  0  0  0  0  0  0  0  0  0
  -24.6164   17.1371  -23.6001 N   0  0  0  0  0  0  0  0  0  0  0  0
  -24.4589   15.9870  -22.9128 C   0  0  0  0  0  0  0  0  0  0  0  0
  -23.4057   15.3500  -22.2914 C   0  0  0  0  0  0  0  0  0  0  0  0
  -23.5537   14.1445  -21.6484 C   0  0  0  0  0  0  0  0  0  0  0  0
  -24.8328   13.5858  -21.6515 C   0  0  0  0  0  0  0  0  0  0  0  0
  -25.8932   14.2148  -22.2699 C   0  0  0  0  0  0  0  0  0  0  0  0
  -25.7333   15.4185  -22.9091 C   0  0  0  0  0  0  0  0  0  0  0  0
  -26.5966   16.2081  -23.5688 N   0  0  0  0  0  0  0  0  0  0  0  0
  -27.9993   15.9309  -23.7633 C   0  0  0  0  0  0  0  0  0  0  0  0
  -28.8885   16.9851  -23.2089 C   0  0  0  0  0  0  0  0  0  0  0  0
  -30.0808   16.4562  -22.5902 N   0  0  0  0  0  0  0  0  0  0  0  0
  -30.4456   17.0222  -21.3495 C   0  0  0  0  0  0  0  0  0  0  0  0
  -30.0176   16.2447  -20.1216 C   0  0  0  0  0  0  0  0  0  0  0  0
  -30.4401   14.8649  -20.3294 N   0  0  0  0  0  0  0  0  0  0  0  0
  -31.2987   14.1995  -19.4111 C   0  0  0  0  0  0  0  0  0  0  0  0
  -31.8430   14.8626  -18.3329 C   0  0  0  0  0  0  0  0  0  0  0  0
  -32.6880   14.2393  -17.4409 C   0  0  0  0  0  0  0  0  0  0  0  0
  -33.0016   12.9308  -17.6192 C   0  0  0  0  0  0  0  0  0  0  0  0
  -32.5015   12.2155  -18.6598 C   0  0  0  0  0  0  0  0  0  0  0  0
  -32.8560   10.7894  -18.8371 C   0  0  0  0  0  0  0  0  0  0  0  0
  -33.3129   10.5373  -20.1018 F   0  0  0  0  0  0  0  0  0  0  0  0
  -33.7590   10.3864  -17.8747 F   0  0  0  0  0  0  0  0  0  0  0  0
  -31.7036   10.0346  -18.6470 F   0  0  0  0  0  0  0  0  0  0  0  0
  -31.6495   12.8758  -19.5445 C   0  0  0  0  0  0  0  0  0  0  0  0
  -29.8945   14.2540  -21.5273 C   0  0  0  0  0  0  0  0  0  0  0  0
  -30.2715   15.0587  -22.7489 C   0  0  0  0  0  0  0  0  0  0  0  0
  1  2  2  0
  2  3  1  0
  3  4  1  0
  4  5  2  0
  5  6  1  0
  6  7  2  0
  7  8  1  0
  8  9  2  0
  9 10  1  0
 10 11  1  0
 11 12  1  0
 12 13  1  0
 13 14  1  0
 14 15  1  0
 15 16  1  0
 16 17  1  0
 17 18  2  0
 18 19  1  0
 19 20  2  0
 20 21  1  0
 21 22  1  0
 22 23  1  0
 22 24  1  0
 22 25  1  0
 21 26  2  0
 16 27  1  0
 27 28  1  0
 10  2  1  0
 28 13  1  0
  9  4  1  0
 26 17  1  0
M  END
$$$$
