
     RDKit          3D

 13 14  0  0  0  0  0  0  0  0999 V2000
  -20.3921   40.9243  -23.5324 O   0  0  0  0  0  0  0  0  0  0  0  0
  -20.9103   39.7917  -23.3650 C   0  0  0  0  0  0  0  0  0  0  0  0
  -22.2211   39.6138  -23.7219 O   0  0  0  0  0  0  0  0  0  0  0  0
  -20.1231   38.6817  -22.7972 C   0  0  0  0  0  0  0  0  0  0  0  0
  -18.8504   38.7291  -22.2752 C   0  0  0  0  0  0  0  0  0  0  0  0
  -18.4949   37.4625  -21.8542 C   0  0  0  0  0  0  0  0  0  0  0  0
  -17.3789   36.9050  -21.2677 C   0  0  0  0  0  0  0  0  0  0  0  0
  -17.2712   35.5668  -20.9351 C   0  0  0  0  0  0  0  0  0  0  0  0
  -16.1351   35.0786  -20.3550 F   0  0  0  0  0  0  0  0  0  0  0  0
  -18.3602   34.7770  -21.2206 C   0  0  0  0  0  0  0  0  0  0  0  0
  -19.5032   35.2775  -21.8062 C   0  0  0  0  0  0  0  0  0  0  0  0
  -19.5792   36.6378  -22.1304 C   0  0  0  0  0  0  0  0  0  0  0  0
  -20.5294   37.4055  -22.6928 N   0  0  0  0  0  0  0  0  0  0  0  0
  1  2  2  0
  2  3  1  0
  2  4  1  0
  4  5  2  0
  5  6  1  0
  6  7  2  0
  7  8  1  0
  8  9  1  0
  8 10  2  0
 10 11  1  0
 11 12  2  0
 12 13  1  0
 13  4  1  0
 12  6  1  0
M  END
$$$$
