
     RDKit          3D

 31 34  0  0  0  0  0  0  0  0999 V2000
  -20.4077   34.7290  -23.9564 C   0  0  0  0  0  0  0  0  0  0  0  0
  -20.7737   35.5737  -25.1134 C   0  0  0  0  0  0  0  0  0  0  0  0
  -20.4015   35.4027  -26.3618 O   0  0  0  0  0  0  0  0  0  0  0  0
  -20.9082   36.3297  -27.1314 N   0  0  0  0  0  0  0  0  0  0  0  0
  -21.6645   37.1861  -26.3980 C   0  0  0  0  0  0  0  0  0  0  0  0
  -22.4007   38.3734  -26.8056 C   0  0  0  0  0  0  0  0  0  0  0  0
  -23.4642   38.8268  -26.0491 C   0  0  0  0  0  0  0  0  0  0  0  0
  -24.1472   39.9925  -26.4349 C   0  0  0  0  0  0  0  0  0  0  0  0
  -23.7895   40.7119  -27.5558 C   0  0  0  0  0  0  0  0  0  0  0  0
  -24.4856   41.8472  -27.8762 F   0  0  0  0  0  0  0  0  0  0  0  0
  -22.7356   40.2647  -28.3103 C   0  0  0  0  0  0  0  0  0  0  0  0
  -22.0617   39.1055  -27.9242 C   0  0  0  0  0  0  0  0  0  0  0  0
  -21.5666   36.6910  -25.1221 C   0  0  0  0  0  0  0  0  0  0  0  0
  -22.1951   37.2909  -23.9000 C   0  0  0  0  0  0  0  0  0  0  0  0
  -21.4328   37.9917  -23.1362 O   0  0  0  0  0  0  0  0  0  0  0  0
  -20.7385   38.6861  -22.2853 C   0  0  0  0  0  0  0  0  0  0  0  0
  -19.6774   38.1152  -21.5288 C   0  0  0  0  0  0  0  0  0  0  0  0
  -18.9504   38.8301  -20.6397 C   0  0  0  0  0  0  0  0  0  0  0  0
  -19.2421   40.1770  -20.4473 C   0  0  0  0  0  0  0  0  0  0  0  0
  -18.4377   40.8643  -19.4668 C   0  0  0  0  0  0  0  0  0  0  0  0
  -18.5112   40.4193  -18.2490 O   0  0  0  0  0  0  0  0  0  0  0  0
  -17.5814   41.9565  -19.6818 N   0  0  0  0  0  0  0  0  0  0  0  0
  -17.2905   42.3312  -21.0754 C   0  0  0  0  0  0  0  0  0  0  0  0
  -17.8180   43.7590  -21.3153 C   0  0  0  0  0  0  0  0  0  0  0  0
  -16.7195   44.7926  -20.3509 S   0  0  0  0  0  6  0  0  0  0  0  0
  -15.7637   45.4403  -21.3186 O   0  0  0  0  0  0  0  0  0  0  0  0
  -17.4726   45.7843  -19.5261 O   0  0  0  0  0  0  0  0  0  0  0  0
  -15.8870   43.6946  -19.2171 C   0  0  0  0  0  0  0  0  0  0  0  0
  -16.9529   42.7511  -18.6667 C   0  0  0  0  0  0  0  0  0  0  0  0
  -20.2449   40.7325  -21.1564 C   0  0  0  0  0  0  0  0  0  0  0  0
  -20.9538   40.0086  -22.0325 N   0  0  0  0  0  0  0  0  0  0  0  0
  1  2  1  0
  2  3  1  0
  3  4  1  0
  4  5  2  0
  5  6  1  0
  6  7  2  0
  7  8  1  0
  8  9  2  0
  9 10  1  0
  9 11  1  0
 11 12  2  0
  5 13  1  0
 13 14  1  0
 14 15  1  0
 15 16  1  0
 16 17  2  0
 17 18  1  0
 18 19  2  0
 19 20  1  0
 20 21  2  0
 20 22  1  0
 22 23  1  0
 23 24  1  0
 24 25  1  0
 25 26  2  0
 25 27  2  0
 25 28  1  0
 28 29  1  0
 19 30  1  0
 30 31  2  0
 13  2  2  0
 31 16  1  0
 12  6  1  0
 29 22  1  0
M  END
$$$$
