
     RDKit          3D

 19 20  0  0  0  0  0  0  0  0999 V2000
  -16.0946   45.8226  -19.5163 C   0  0  0  0  0  0  0  0  0  0  0  0
  -16.4534   44.5802  -20.2460 C   0  0  0  0  0  0  0  0  0  0  0  0
  -17.1946   44.6497  -21.3984 C   0  0  0  0  0  0  0  0  0  0  0  0
  -17.5154   43.4735  -22.0595 C   0  0  0  0  0  0  0  0  0  0  0  0
  -17.1122   42.2397  -21.5936 C   0  0  0  0  0  0  0  0  0  0  0  0
  -17.4982   40.7364  -22.4010 S   0  0  0  0  0  6  0  0  0  0  0  0
  -17.1129   39.5939  -21.4939 O   0  0  0  0  0  0  0  0  0  0  0  0
  -16.7466   40.6533  -23.6954 O   0  0  0  0  0  0  0  0  0  0  0  0
  -19.2372   40.7369  -22.7287 C   0  0  0  0  0  0  0  0  0  0  0  0
  -20.0275   40.3668  -21.5249 C   0  0  0  0  0  0  0  0  0  0  0  0
  -20.4877   41.2588  -20.5783 C   0  0  0  0  0  0  0  0  0  0  0  0
  -21.1660   40.5521  -19.6313 C   0  0  0  0  0  0  0  0  0  0  0  0
  -21.0973   39.2179  -20.0387 C   0  0  0  0  0  0  0  0  0  0  0  0
  -21.7094   38.1233  -19.2851 C   0  0  0  0  0  0  0  0  0  0  0  0
  -22.4527   38.4218  -18.3169 O   0  0  0  0  0  0  0  0  0  0  0  0
  -21.5114   36.8018  -19.5837 O   0  0  0  0  0  0  0  0  0  0  0  0
  -20.4241   39.1935  -21.1394 O   0  0  0  0  0  0  0  0  0  0  0  0
  -16.3693   42.2149  -20.4324 C   0  0  0  0  0  0  0  0  0  0  0  0
  -16.0297   43.3624  -19.7457 C   0  0  0  0  0  0  0  0  0  0  0  0
  1  2  1  0
  2  3  2  0
  3  4  1  0
  4  5  2  0
  5  6  1  0
  6  7  2  0
  6  8  2  0
  6  9  1  0
  9 10  1  0
 10 11  2  0
 11 12  1  0
 12 13  2  0
 13 14  1  0
 14 15  2  0
 14 16  1  0
 13 17  1  0
  5 18  1  0
 18 19  2  0
 19  2  1  0
 17 10  1  0
M  END
$$$$
