
     RDKit          3D

 35 39  0  0  0  0  0  0  0  0999 V2000
  -19.3945   19.4957  -37.6934 C   0  0  0  0  0  0  0  0  0  0  0  0
  -18.9980   18.2353  -38.4313 C   0  0  0  0  0  0  0  0  0  0  0  0
  -17.7416   17.7822  -37.8761 N   0  0  0  0  0  0  0  0  0  0  0  0
  -17.6439   17.0828  -36.7389 C   0  0  0  0  0  0  0  0  0  0  0  0
  -18.7166   16.8071  -36.1163 O   0  0  0  0  0  0  0  0  0  0  0  0
  -16.4469   16.6520  -36.2169 C   0  0  0  0  0  0  0  0  0  0  0  0
  -16.3520   15.8932  -34.9769 C   0  0  0  0  0  0  0  0  0  0  0  0
  -16.2346   14.5094  -35.0282 C   0  0  0  0  0  0  0  0  0  0  0  0
  -16.1442   13.7538  -33.8881 C   0  0  0  0  0  0  0  0  0  0  0  0
  -16.1680   14.3562  -32.6618 C   0  0  0  0  0  0  0  0  0  0  0  0
  -16.0488   13.3486  -31.2242 Cl  0  0  0  0  0  0  0  0  0  0  0  0
  -16.2836   15.7288  -32.5691 C   0  0  0  0  0  0  0  0  0  0  0  0
  -16.3730   16.4668  -33.7318 C   0  0  0  0  0  0  0  0  0  0  0  0
  -16.5175   18.1964  -33.5853 Cl  0  0  0  0  0  0  0  0  0  0  0  0
  -15.2997   16.9666  -36.9148 C   0  0  0  0  0  0  0  0  0  0  0  0
  -15.3632   17.6829  -38.0853 C   0  0  0  0  0  0  0  0  0  0  0  0
  -14.2260   18.0089  -38.8032 C   0  0  0  0  0  0  0  0  0  0  0  0
  -14.3089   18.7143  -39.9542 N   0  0  0  0  0  0  0  0  0  0  0  0
  -15.5197   19.0997  -40.3984 C   0  0  0  0  0  0  0  0  0  0  0  0
  -15.6794   19.8427  -41.6171 N   0  0  0  0  0  0  0  0  0  0  0  0
  -16.9359   20.3674  -42.0098 C   0  0  0  0  0  0  0  0  0  0  0  0
  -18.0222   20.4228  -41.1583 C   0  0  0  0  0  0  0  0  0  0  0  0
  -19.2454   20.9410  -41.5541 C   0  0  0  0  0  0  0  0  0  0  0  0
  -19.4159   21.4255  -42.8341 C   0  0  0  0  0  0  0  0  0  0  0  0
  -20.6380   21.9750  -43.3239 N   0  0  0  0  0  0  0  0  0  0  0  0
  -20.6031   23.1880  -44.0975 C   0  0  0  0  0  0  0  0  0  0  0  0
  -21.8995   23.9570  -43.9924 C   0  0  0  0  0  0  0  0  0  0  0  0
  -22.5026   23.6536  -42.6791 N   0  0  0  0  0  0  0  0  0  0  0  0
  -23.0156   22.3048  -42.8131 C   0  0  0  0  0  0  0  0  0  0  0  0
  -21.8953   21.3337  -43.0609 C   0  0  0  0  0  0  0  0  0  0  0  0
  -18.3261   21.3668  -43.6799 C   0  0  0  0  0  0  0  0  0  0  0  0
  -18.4696   21.8346  -44.9354 F   0  0  0  0  0  0  0  0  0  0  0  0
  -17.1088   20.8516  -43.2877 C   0  0  0  0  0  0  0  0  0  0  0  0
  -16.6308   18.7826  -39.6996 N   0  0  0  0  0  0  0  0  0  0  0  0
  -16.6141   18.0844  -38.5501 C   0  0  0  0  0  0  0  0  0  0  0  0
  1  2  1  0
  2  3  1  0
  3  4  1  0
  4  5  2  0
  4  6  1  0
  6  7  1  0
  7  8  2  0
  8  9  1  0
  9 10  2  0
 10 11  1  0
 10 12  1  0
 12 13  2  0
 13 14  1  0
  6 15  2  0
 15 16  1  0
 16 17  2  0
 17 18  1  0
 18 19  2  0
 19 20  1  0
 20 21  1  0
 21 22  2  0
 22 23  1  0
 23 24  2  0
 24 25  1  0
 25 26  1  0
 26 27  1  0
 27 28  1  0
 28 29  1  0
 29 30  1  0
 24 31  1  0
 31 32  1  0
 31 33  2  0
 19 34  1  0
 34 35  2  0
 35  3  1  0
 13  7  1  0
 35 16  1  0
 33 21  1  0
 30 25  1  0
M  END
$$$$
