
     RDKit          3D

 19 21  0  0  0  0  0  0  0  0999 V2000
  -26.5758   40.2002  -24.6937 O   0  0  0  0  0  0  0  0  0  0  0  0
  -25.5549   39.3319  -24.2925 C   0  0  0  0  0  0  0  0  0  0  0  0
  -25.6492   38.0044  -24.5562 C   0  0  0  0  0  0  0  0  0  0  0  0
  -24.6153   37.1501  -24.1458 C   0  0  0  0  0  0  0  0  0  0  0  0
  -23.5143   37.6297  -23.4853 C   0  0  0  0  0  0  0  0  0  0  0  0
  -22.4966   36.7579  -23.0863 N   0  0  0  0  0  0  0  0  0  0  0  0
  -21.1003   37.2360  -22.9597 C   0  0  0  0  0  0  0  0  0  0  0  0
  -20.4048   38.1130  -23.0375 N   0  0  0  0  0  0  0  0  0  0  0  0
  -19.0994   38.2678  -22.8547 C   0  0  0  0  0  0  0  0  0  0  0  0
  -18.3627   39.5605  -23.0172 C   0  0  0  0  0  0  0  0  0  0  0  0
  -17.0502   39.7092  -22.6484 C   0  0  0  0  0  0  0  0  0  0  0  0
  -16.3596   40.8930  -22.7921 C   0  0  0  0  0  0  0  0  0  0  0  0
  -17.0263   41.9634  -23.3296 C   0  0  0  0  0  0  0  0  0  0  0  0
  -18.3494   41.7971  -23.6963 C   0  0  0  0  0  0  0  0  0  0  0  0
  -18.9898   40.6215  -23.5393 N   0  0  0  0  0  0  0  0  0  0  0  0
  -18.4878   37.1208  -22.5004 C   0  0  0  0  0  0  0  0  0  0  0  0
  -19.8393   35.8796  -22.4514 S   0  0  0  0  0  0  0  0  0  0  0  0
  -23.4561   38.9910  -23.2353 C   0  0  0  0  0  0  0  0  0  0  0  0
  -24.4647   39.8458  -23.6322 C   0  0  0  0  0  0  0  0  0  0  0  0
  1  2  1  0
  2  3  2  0
  3  4  1  0
  4  5  2  0
  5  6  1  0
  6  7  1  0
  7  8  2  0
  8  9  1  0
  9 10  1  0
 10 11  2  0
 11 12  1  0
 12 13  2  0
 13 14  1  0
 14 15  2  0
  9 16  2  0
 16 17  1  0
  5 18  1  0
 18 19  2  0
 19  2  1  0
 17  7  1  0
 15 10  1  0
M  END
$$$$
