
     RDKit          3D

 18 19  0  0  0  0  0  0  0  0999 V2000
  -18.8960   43.8683  -20.9043 C   0  0  0  0  0  0  0  0  0  0  0  0
  -17.6589   43.0532  -21.2033 C   0  0  0  0  0  0  0  0  0  0  0  0
  -18.0922   41.6164  -21.3429 C   0  0  0  0  0  0  0  0  0  0  0  0
  -17.2552   40.6857  -21.3642 O   0  0  0  0  0  0  0  0  0  0  0  0
  -19.4581   41.3975  -21.4449 O   0  0  0  0  0  0  0  0  0  0  0  0
  -16.7353   43.2125  -20.0551 C   0  0  0  0  0  0  0  0  0  0  0  0
  -17.1182   42.7533  -18.8191 C   0  0  0  0  0  0  0  0  0  0  0  0
  -16.2492   42.9003  -17.7389 C   0  0  0  0  0  0  0  0  0  0  0  0
  -15.0085   43.5020  -17.8973 C   0  0  0  0  0  0  0  0  0  0  0  0
  -14.1224   43.6409  -16.7484 C   0  0  0  0  0  0  0  0  0  0  0  0
  -13.9652   44.8188  -16.0501 C   0  0  0  0  0  0  0  0  0  0  0  0
  -13.1334   44.9704  -14.9626 C   0  0  0  0  0  0  0  0  0  0  0  0
  -12.4079   43.8844  -14.5363 C   0  0  0  0  0  0  0  0  0  0  0  0
  -12.5349   42.6802  -15.2087 C   0  0  0  0  0  0  0  0  0  0  0  0
  -13.3742   42.5560  -16.2937 C   0  0  0  0  0  0  0  0  0  0  0  0
  -14.6659   43.9438  -19.1373 C   0  0  0  0  0  0  0  0  0  0  0  0
  -13.4624   44.5431  -19.3584 F   0  0  0  0  0  0  0  0  0  0  0  0
  -15.5140   43.8118  -20.2412 C   0  0  0  0  0  0  0  0  0  0  0  0
  1  2  1  0
  2  3  1  0
  3  4  2  0
  3  5  1  0
  2  6  1  0
  6  7  2  0
  7  8  1  0
  8  9  2  0
  9 10  1  0
 10 11  2  0
 11 12  1  0
 12 13  2  0
 13 14  1  0
 14 15  2  0
  9 16  1  0
 16 17  1  0
 16 18  2  0
 18  6  1  0
 15 10  1  0
M  END
$$$$
