
     RDKit          3D

 27 30  0  0  0  0  0  0  0  0999 V2000
  -29.5118   18.8039  -26.7451 C   0  0  0  0  0  0  0  0  0  0  0  0
  -30.0693   18.4368  -25.5435 O   0  0  0  0  0  0  0  0  0  0  0  0
  -29.2404   18.5558  -24.4579 C   0  0  0  0  0  0  0  0  0  0  0  0
  -30.0196   18.1853  -23.2070 C   0  0  0  0  0  0  0  0  0  0  0  0
  -29.0220   18.1769  -22.0684 C   0  0  0  0  0  0  0  0  0  0  0  0
  -28.3999   16.8791  -21.8917 N   0  0  0  0  0  0  0  0  0  0  0  0
  -27.1485   16.5743  -22.2743 C   0  0  0  0  0  0  0  0  0  0  0  0
  -26.1902   17.4195  -22.9123 N   0  0  0  0  0  0  0  0  0  0  0  0
  -26.9621   15.2496  -21.9216 C   0  0  0  0  0  0  0  0  0  0  0  0
  -25.7316   14.5034  -22.1539 C   0  0  0  0  0  0  0  0  0  0  0  0
  -24.7128   15.0746  -22.6375 O   0  0  0  0  0  0  0  0  0  0  0  0
  -25.5918   13.1272  -21.8640 N   0  0  0  0  0  0  0  0  0  0  0  0
  -24.3078   12.4783  -21.7062 C   0  0  0  0  0  0  0  0  0  0  0  0
  -23.7059   12.0466  -23.0024 C   0  0  0  0  0  0  0  0  0  0  0  0
  -22.2588   11.7552  -22.5999 C   0  0  0  0  0  0  0  0  0  0  0  0
  -21.9609   12.9716  -21.7454 C   0  0  0  0  0  0  0  0  0  0  0  0
  -23.2699   13.3321  -21.0736 C   0  0  0  0  0  0  0  0  0  0  0  0
  -28.1108   14.7990  -21.3366 C   0  0  0  0  0  0  0  0  0  0  0  0
  -28.4864   13.6131  -20.8129 N   0  0  0  0  0  0  0  0  0  0  0  0
  -29.7124   13.4332  -20.2850 C   0  0  0  0  0  0  0  0  0  0  0  0
  -30.1035   12.2222  -19.7474 C   0  0  0  0  0  0  0  0  0  0  0  0
  -31.3721   12.0528  -19.2067 C   0  0  0  0  0  0  0  0  0  0  0  0
  -32.2903   13.0818  -19.1838 C   0  0  0  0  0  0  0  0  0  0  0  0
  -31.9019   14.2900  -19.7195 C   0  0  0  0  0  0  0  0  0  0  0  0
  -30.6323   14.4613  -20.2613 C   0  0  0  0  0  0  0  0  0  0  0  0
  -30.2518   15.6401  -20.7846 N   0  0  0  0  0  0  0  0  0  0  0  0
  -29.0223   15.8343  -21.3184 C   0  0  0  0  0  0  0  0  0  0  0  0
  1  2  1  0
  2  3  1  0
  3  4  1  0
  4  5  1  0
  5  6  1  0
  6  7  1  0
  7  8  1  0
  7  9  2  0
  9 10  1  0
 10 11  2  0
 10 12  1  0
 12 13  1  0
 13 14  1  0
 14 15  1  0
 15 16  1  0
 16 17  1  0
  9 18  1  0
 18 19  2  0
 19 20  1  0
 20 21  2  0
 21 22  1  0
 22 23  2  0
 23 24  1  0
 24 25  2  0
 25 26  1  0
 26 27  2  0
 27  6  1  0
 17 13  1  0
 27 18  1  0
 25 20  1  0
M  END
$$$$
