
     RDKit          3D

 25 26  0  0  0  0  0  0  0  0999 V2000
  -29.5085   16.3094  -20.2071 C   0  0  0  0  0  0  0  0  0  0  0  0
  -28.8446   15.3336  -20.9484 O   0  0  0  0  0  0  0  0  0  0  0  0
  -28.9623   13.9686  -20.7776 C   0  0  0  0  0  0  0  0  0  0  0  0
  -30.0664   13.5325  -20.3731 O   0  0  0  0  0  0  0  0  0  0  0  0
  -27.8880   13.0248  -21.0391 C   0  0  0  0  0  0  0  0  0  0  0  0
  -28.0343   11.8183  -20.5291 C   0  0  0  0  0  0  0  0  0  0  0  0
  -29.2412   11.4104  -19.7090 C   0  0  0  0  0  0  0  0  0  0  0  0
  -27.0334   10.8501  -20.7882 N   0  0  0  0  0  0  0  0  0  0  0  0
  -25.9098   11.1568  -21.5674 C   0  0  0  0  0  0  0  0  0  0  0  0
  -24.8847   10.0889  -21.8085 C   0  0  0  0  0  0  0  0  0  0  0  0
  -25.7393   12.3360  -22.0773 C   0  0  0  0  0  0  0  0  0  0  0  0
  -24.5677   12.6651  -22.9006 C   0  0  0  0  0  0  0  0  0  0  0  0
  -23.9498   11.7315  -23.4519 O   0  0  0  0  0  0  0  0  0  0  0  0
  -24.1318   13.9642  -23.0828 O   0  0  0  0  0  0  0  0  0  0  0  0
  -23.0785   14.5382  -22.3549 C   0  0  0  0  0  0  0  0  0  0  0  0
  -26.6922   13.4599  -21.8295 C   0  0  0  0  0  0  0  0  0  0  0  0
  -27.0579   14.0133  -23.1432 C   0  0  0  0  0  0  0  0  0  0  0  0
  -28.3195   13.7256  -23.6985 C   0  0  0  0  0  0  0  0  0  0  0  0
  -28.7194   14.2589  -24.9013 C   0  0  0  0  0  0  0  0  0  0  0  0
  -27.8886   15.0989  -25.6047 C   0  0  0  0  0  0  0  0  0  0  0  0
  -26.6633   15.3894  -25.0852 C   0  0  0  0  0  0  0  0  0  0  0  0
  -26.2489   14.8448  -23.8541 C   0  0  0  0  0  0  0  0  0  0  0  0
  -24.9503   15.2107  -23.4537 N   0  0  0  0  0  4  0  0  0  0  0  0
  -23.9633   14.5142  -23.5888 O   0  0  0  0  0  0  0  0  0  0  0  0
  -24.7645   16.4606  -22.8897 O   0  0  0  0  0  1  0  0  0  0  0  0
  1  2  1  0
  2  3  1  0
  3  4  2  0
  3  5  1  0
  5  6  2  0
  6  7  1  0
  6  8  1  0
  8  9  1  0
  9 10  1  0
  9 11  2  0
 11 12  1  0
 12 13  2  0
 12 14  1  0
 14 15  1  0
 11 16  1  0
 16 17  1  0
 17 18  2  0
 18 19  1  0
 19 20  2  0
 20 21  1  0
 21 22  2  0
 22 23  1  0
 23 24  2  0
 23 25  1  0
 16  5  1  0
 22 17  1  0
M  CHG  2  23   1  25  -1
M  END
$$$$
