
     RDKit          3D

 26 27  0  0  0  0  0  0  0  0999 V2000
  -43.7241    1.2417  -38.2044 C   0  0  0  0  0  0  0  0  0  0  0  0
  -43.3094    2.6803  -38.0389 C   0  0  0  0  0  0  0  0  0  0  0  0
  -41.9744    2.7247  -37.3786 C   0  0  0  0  0  0  0  0  0  0  0  0
  -44.3785    3.3639  -37.1806 C   0  0  2  0  0  0  0  0  0  0  0  0
  -45.6091    3.0567  -37.6796 O   0  0  0  0  0  0  0  0  0  0  0  0
  -44.1045    4.8187  -37.1123 C   0  0  0  0  0  0  0  0  0  0  0  0
  -42.9415    5.2286  -36.8314 O   0  0  0  0  0  0  0  0  0  0  0  0
  -45.0696    5.8330  -37.3432 N   0  0  0  0  0  0  0  0  0  0  0  0
  -44.8420    7.2087  -37.0301 C   0  0  1  0  0  0  0  0  0  0  0  0
  -45.9149    8.0154  -37.7737 C   0  0  0  0  0  0  0  0  0  0  0  0
  -44.8047    7.5273  -35.6065 C   0  0  0  0  0  0  0  0  0  0  0  0
  -45.3530    6.6918  -34.8181 O   0  0  0  0  0  0  0  0  0  0  0  0
  -44.2221    8.6663  -35.0240 N   0  0  0  0  0  0  0  0  0  0  0  0
  -43.8832    8.8354  -33.6248 C   0  0  2  0  0  0  0  0  0  0  0  0
  -44.4280   10.1528  -33.2280 C   0  0  0  0  0  0  0  0  0  0  0  0
  -45.6007   10.1053  -32.7747 O   0  0  0  0  0  0  0  0  0  0  0  0
  -43.8445   11.4432  -33.2774 N   0  0  0  0  0  0  0  0  0  0  0  0
  -44.7136   12.5791  -33.1875 C   0  0  0  0  0  0  0  0  0  0  0  0
  -42.4490   11.7156  -33.4116 C   0  0  0  0  0  0  0  0  0  0  0  0
  -41.6926   10.9628  -32.3656 C   0  0  0  0  0  0  0  0  0  0  0  0
  -41.5356    9.5424  -32.8409 C   0  0  0  0  0  0  0  0  0  0  0  0
  -40.2268    9.1316  -32.6877 C   0  0  0  0  0  0  0  0  0  0  0  0
  -39.8292    7.8783  -33.0419 C   0  0  0  0  0  0  0  0  0  0  0  0
  -40.7726    6.9921  -33.5723 C   0  0  0  0  0  0  0  0  0  0  0  0
  -42.0729    7.4064  -33.7220 C   0  0  0  0  0  0  0  0  0  0  0  0
  -42.4458    8.6660  -33.3600 C   0  0  0  0  0  0  0  0  0  0  0  0
  1  2  1  0
  2  3  1  0
  2  4  1  0
  4  5  1  6
  4  6  1  0
  6  7  2  0
  6  8  1  0
  8  9  1  0
  9 10  1  6
  9 11  1  0
 11 12  2  0
 11 13  1  0
 14 13  1  6
 14 15  1  0
 15 16  2  0
 15 17  1  0
 17 18  1  0
 17 19  1  0
 19 20  1  0
 20 21  1  0
 21 22  2  0
 22 23  1  0
 23 24  2  0
 24 25  1  0
 25 26  2  0
 26 14  1  0
 26 21  1  0
M  END
$$$$
