
     RDKit          3D

 15 16  0  0  0  0  0  0  0  0999 V2000
  -17.0895   14.3869  -29.3862 C   0  0  0  0  0  0  0  0  0  0  0  0
  -17.9428   15.4562  -29.0438 O   0  0  0  0  0  0  0  0  0  0  0  0
  -18.8391   15.9259  -29.9867 C   0  0  0  0  0  0  0  0  0  0  0  0
  -19.4413   15.0560  -30.9007 C   0  0  0  0  0  0  0  0  0  0  0  0
  -20.3333   15.5205  -31.8397 C   0  0  0  0  0  0  0  0  0  0  0  0
  -20.9600   14.7310  -32.7635 O   0  0  0  0  0  0  0  0  0  0  0  0
  -20.3312   13.9647  -33.7453 C   0  0  0  0  0  0  0  0  0  0  0  0
  -20.6085   16.8805  -31.8414 C   0  0  0  0  0  0  0  0  0  0  0  0
  -21.4997   17.4048  -32.7654 C   0  0  0  0  0  0  0  0  0  0  0  0
  -21.7682   18.7587  -32.7606 C   0  0  0  0  0  0  0  0  0  0  0  0
  -21.1297   19.5421  -31.8243 C   0  0  0  0  0  0  0  0  0  0  0  0
  -21.3321   20.8003  -31.7644 O   0  0  0  0  0  0  0  0  0  0  0  0
  -20.2972   19.0191  -30.9691 O   0  0  0  0  0  0  0  0  0  0  0  0
  -20.0218   17.7455  -30.9467 C   0  0  0  0  0  0  0  0  0  0  0  0
  -19.1285   17.2818  -30.0060 C   0  0  0  0  0  0  0  0  0  0  0  0
  1  2  1  0
  2  3  1  0
  3  4  2  0
  4  5  1  0
  5  6  1  0
  6  7  1  0
  5  8  2  0
  8  9  1  0
  9 10  2  0
 10 11  1  0
 11 12  2  0
 11 13  1  0
 13 14  1  0
 14 15  2  0
 15  3  1  0
 14  8  1  0
M  END
$$$$
