
     RDKit          3D

 24 26  0  0  0  0  0  0  0  0999 V2000
  -22.7322   22.6494  -26.3335 C   0  0  0  0  0  0  0  0  0  0  0  0
  -22.7554   22.8339  -27.7297 O   0  0  0  0  0  0  0  0  0  0  0  0
  -22.0225   21.9835  -28.5543 C   0  0  0  0  0  0  0  0  0  0  0  0
  -20.7075   21.6627  -28.3186 C   0  0  0  0  0  0  0  0  0  0  0  0
  -20.0096   20.8125  -29.1610 C   0  0  0  0  0  0  0  0  0  0  0  0
  -18.7273   20.4922  -28.9380 N   0  0  0  0  0  0  0  0  0  0  0  0
  -18.0903   19.6632  -29.7786 C   0  0  0  0  0  0  0  0  0  0  0  0
  -18.7273   19.1550  -30.8375 N   0  0  0  0  0  0  0  0  0  0  0  0
  -20.0235   19.4186  -31.1485 C   0  0  0  0  0  0  0  0  0  0  0  0
  -20.6186   18.8325  -32.2884 N   0  0  0  0  0  0  0  0  0  0  0  0
  -19.8888   17.9835  -33.1465 C   0  0  0  0  0  0  0  0  0  0  0  0
  -20.5291   17.0106  -33.9225 C   0  0  0  0  0  0  0  0  0  0  0  0
  -19.8709   16.1489  -34.7490 C   0  0  0  0  0  0  0  0  0  0  0  0
  -20.7662   14.8264  -35.8034 Br  0  0  0  0  0  0  0  0  0  0  0  0
  -18.4841   16.2601  -34.8101 C   0  0  0  0  0  0  0  0  0  0  0  0
  -17.8210   15.3665  -35.6665 O   0  0  0  0  0  0  0  0  0  0  0  0
  -17.8121   17.1925  -34.0723 C   0  0  0  0  0  0  0  0  0  0  0  0
  -15.9283   17.2982  -34.1904 Br  0  0  0  0  0  0  0  0  0  0  0  0
  -18.5283   18.0496  -33.2425 C   0  0  0  0  0  0  0  0  0  0  0  0
  -20.6616   20.2779  -30.2648 C   0  0  0  0  0  0  0  0  0  0  0  0
  -21.9781   20.5953  -30.5056 C   0  0  0  0  0  0  0  0  0  0  0  0
  -22.6677   21.4514  -29.6507 C   0  0  0  0  0  0  0  0  0  0  0  0
  -23.9848   21.7625  -29.9020 O   0  0  0  0  0  0  0  0  0  0  0  0
  -24.9793   20.8199  -30.1994 C   0  0  0  0  0  0  0  0  0  0  0  0
  1  2  1  0
  2  3  1  0
  3  4  2  0
  4  5  1  0
  5  6  2  0
  6  7  1  0
  7  8  2  0
  8  9  1  0
  9 10  1  0
 10 11  1  0
 11 12  2  0
 12 13  1  0
 13 14  1  0
 13 15  2  0
 15 16  1  0
 15 17  1  0
 17 18  1  0
 17 19  2  0
  9 20  2  0
 20 21  1  0
 21 22  2  0
 22 23  1  0
 23 24  1  0
 22  3  1  0
 20  5  1  0
 19 11  1  0
M  END
$$$$
