
     RDKit          3D

 18 19  0  0  0  0  0  0  0  0999 V2000
  -16.5608   40.0627  -22.7517 O   0  0  0  0  0  0  0  0  0  0  0  0
  -17.7250   39.7296  -22.4136 C   0  0  0  0  0  0  0  0  0  0  0  0
  -17.9802   38.3561  -22.2102 N   0  0  0  0  0  0  0  0  0  0  0  0
  -18.7012   37.8770  -21.0939 N   0  0  0  0  0  0  0  0  0  0  0  0
  -18.7834   36.5963  -20.9704 C   0  0  0  0  0  0  0  0  0  0  0  0
  -19.2473   35.8135  -22.1068 C   0  0  0  0  0  0  0  0  0  0  0  0
  -20.5511   35.3295  -22.1278 C   0  0  0  0  0  0  0  0  0  0  0  0
  -20.9846   34.5938  -23.1974 C   0  0  0  0  0  0  0  0  0  0  0  0
  -20.1394   34.3389  -24.2352 C   0  0  0  0  0  0  0  0  0  0  0  0
  -18.8237   34.8072  -24.2512 C   0  0  0  0  0  0  0  0  0  0  0  0
  -18.4324   35.5405  -23.1578 C   0  0  0  0  0  0  0  0  0  0  0  0
  -17.1209   36.0157  -23.1583 O   0  0  0  0  0  0  0  0  0  0  0  0
  -18.7301   40.7793  -22.2548 C   0  0  0  0  0  0  0  0  0  0  0  0
  -19.8563   40.8259  -23.0481 C   0  0  0  0  0  0  0  0  0  0  0  0
  -20.8275   41.7893  -22.9385 C   0  0  0  0  0  0  0  0  0  0  0  0
  -20.6489   42.7321  -21.9958 N   0  0  0  0  0  0  0  0  0  0  0  0
  -19.5790   42.7573  -21.1825 C   0  0  0  0  0  0  0  0  0  0  0  0
  -18.6003   41.7690  -21.3079 C   0  0  0  0  0  0  0  0  0  0  0  0
  1  2  2  0
  2  3  1  0
  3  4  1  0
  4  5  2  0
  5  6  1  0
  6  7  2  0
  7  8  1  0
  8  9  2  0
  9 10  1  0
 10 11  2  0
 11 12  1  0
  2 13  1  0
 13 14  2  0
 14 15  1  0
 15 16  2  0
 16 17  1  0
 17 18  2  0
 11  6  1  0
 18 13  1  0
M  END
$$$$
