
     RDKit          3D

 22 25  0  0  0  0  0  0  0  0999 V2000
  -15.2366   47.1269  -19.1789 N   0  0  0  0  0  0  0  0  0  0  0  0
  -15.3108   45.7485  -18.8355 C   0  0  0  0  0  0  0  0  0  0  0  0
  -14.7341   45.3087  -17.6950 N   0  0  0  0  0  0  0  0  0  0  0  0
  -14.7971   44.0191  -17.3627 C   0  0  0  0  0  0  0  0  0  0  0  0
  -15.4239   43.0926  -18.1223 N   0  0  0  0  0  0  0  0  0  0  0  0
  -15.9992   43.5014  -19.2497 C   0  0  0  0  0  0  0  0  0  0  0  0
  -15.9522   44.8149  -19.6178 C   0  0  0  0  0  0  0  0  0  0  0  0
  -16.6002   44.9570  -20.7790 N   0  0  0  0  0  0  0  0  0  0  0  0
  -17.0419   43.7269  -21.1172 C   0  0  0  0  0  0  0  0  0  0  0  0
  -16.6747   42.8312  -20.1808 N   0  0  0  0  0  0  0  0  0  0  0  0
  -16.9910   41.4085  -20.2379 C   0  0  2  0  0  0  0  0  0  0  0  0
  -17.2424   40.9770  -21.5176 O   0  0  0  0  0  0  0  0  0  0  0  0
  -18.2273   39.9985  -21.3950 C   0  0  2  0  0  0  0  0  0  0  0  0
  -18.8031   39.5396  -22.6734 C   0  0  0  0  0  0  0  0  0  0  0  0
  -20.2107   39.6004  -22.7133 O   0  0  0  0  0  0  0  0  0  0  0  0
  -20.8978   39.0784  -21.2809 P   0  0  0  0  0  5  0  0  0  0  0  0
  -20.6939   37.6117  -21.0194 O   0  0  0  0  0  0  0  0  0  0  0  0
  -22.5422   39.4874  -21.3088 O   0  0  0  0  0  0  0  0  0  0  0  0
  -20.1940   39.9312  -20.0039 O   0  0  0  0  0  0  0  0  0  0  0  0
  -19.2279   40.7613  -20.5220 C   0  0  1  0  0  0  0  0  0  0  0  0
  -18.2758   41.2311  -19.4408 C   0  0  1  0  0  0  0  0  0  0  0  0
  -18.1408   40.1634  -18.5431 O   0  0  0  0  0  0  0  0  0  0  0  0
  1  2  1  0
  2  3  2  0
  3  4  1  0
  4  5  2  0
  5  6  1  0
  6  7  2  0
  7  8  1  0
  8  9  2  0
  9 10  1  0
 11 10  1  6
 11 12  1  0
 12 13  1  0
 13 14  1  6
 14 15  1  0
 15 16  1  0
 16 17  2  0
 16 18  1  0
 16 19  1  0
 20 19  1  1
 20 21  1  0
 21 22  1  1
  7  2  1  0
 21 11  1  0
 10  6  1  0
 20 13  1  0
M  END
$$$$
