
     RDKit          3D

 20 23  0  0  0  0  0  0  0  0999 V2000
  -21.4729   24.0900  -37.5336 C   0  0  0  0  0  0  0  0  0  0  0  0
  -22.8816   24.4867  -37.2318 C   0  0  0  0  0  0  0  0  0  0  0  0
  -23.2514   25.5905  -36.6501 O   0  0  0  0  0  0  0  0  0  0  0  0
  -24.5730   25.6576  -36.5203 C   0  0  0  0  0  0  0  0  0  0  0  0
  -25.3829   26.6237  -35.9758 C   0  0  0  0  0  0  0  0  0  0  0  0
  -26.7597   26.3836  -35.9964 C   0  0  0  0  0  0  0  0  0  0  0  0
  -27.5895   27.2618  -35.4946 O   0  0  0  0  0  0  0  0  0  0  0  0
  -28.8707   27.1311  -35.4671 C   0  0  0  0  0  0  0  0  0  0  0  0
  -29.6619   27.9911  -34.9774 O   0  0  0  0  0  0  0  0  0  0  0  0
  -29.4538   26.0026  -35.9919 C   0  0  0  0  0  0  0  0  0  0  0  0
  -30.8183   25.8193  -35.9848 C   0  0  0  0  0  0  0  0  0  0  0  0
  -31.3850   24.6832  -36.5146 C   0  0  0  0  0  0  0  0  0  0  0  0
  -30.5625   23.7194  -37.0588 C   0  0  0  0  0  0  0  0  0  0  0  0
  -29.1640   23.8785  -37.0806 C   0  0  0  0  0  0  0  0  0  0  0  0
  -28.6619   25.0173  -36.5447 C   0  0  0  0  0  0  0  0  0  0  0  0
  -27.2946   25.2096  -36.5475 C   0  0  0  0  0  0  0  0  0  0  0  0
  -26.4340   24.2809  -37.0769 C   0  0  0  0  0  0  0  0  0  0  0  0
  -25.0670   24.4945  -37.0689 C   0  0  0  0  0  0  0  0  0  0  0  0
  -23.9985   23.7433  -37.5242 C   0  0  0  0  0  0  0  0  0  0  0  0
  -24.1132   22.4280  -38.1769 C   0  0  0  0  0  0  0  0  0  0  0  0
  1  2  1  0
  2  3  1  0
  3  4  1  0
  4  5  2  0
  5  6  1  0
  6  7  1  0
  7  8  1  0
  8  9  2  0
  8 10  1  0
 10 11  2  0
 11 12  1  0
 12 13  2  0
 13 14  1  0
 14 15  2  0
 15 16  1  0
 16 17  1  0
 17 18  2  0
 18 19  1  0
 19 20  1  0
 19  2  2  0
 18  4  1  0
 16  6  2  0
 15 10  1  0
M  END
$$$$
