
     RDKit          3D

 32 35  0  0  0  0  0  0  0  0999 V2000
  -22.1122   42.9845  -25.5368 C   0  0  0  0  0  0  0  0  0  0  0  0
  -21.2869   43.0284  -24.2787 C   0  0  0  0  0  0  0  0  0  0  0  0
  -21.6783   42.5883  -23.0364 C   0  0  0  0  0  0  0  0  0  0  0  0
  -20.6785   42.7909  -22.1681 N   0  0  0  0  0  0  0  0  0  0  0  0
  -19.6652   43.3506  -22.8414 C   0  0  0  0  0  0  0  0  0  0  0  0
  -18.3556   43.7618  -22.3201 C   0  0  0  0  0  0  0  0  0  0  0  0
  -17.9654   45.0655  -22.4961 C   0  0  0  0  0  0  0  0  0  0  0  0
  -16.7698   45.5241  -22.0362 N   0  0  0  0  0  0  0  0  0  0  0  0
  -15.9405   44.6751  -21.3871 C   0  0  0  0  0  0  0  0  0  0  0  0
  -14.7134   45.2191  -20.9328 N   0  0  0  0  0  0  0  0  0  0  0  0
  -13.9034   44.5632  -19.9290 C   0  0  0  0  0  0  0  0  0  0  0  0
  -14.7798   43.8730  -18.8897 C   0  0  0  0  0  0  0  0  0  0  0  0
  -14.7657   44.5939  -17.6501 N   0  0  0  0  0  0  0  0  0  0  0  0
  -13.8314   44.2717  -16.6319 C   0  0  0  0  0  0  0  0  0  0  0  0
  -12.9987   43.1527  -16.7509 C   0  0  0  0  0  0  0  0  0  0  0  0
  -12.0893   42.8151  -15.7921 C   0  0  0  0  0  0  0  0  0  0  0  0
  -11.9860   43.5974  -14.6727 C   0  0  0  0  0  0  0  0  0  0  0  0
  -11.0669   43.3344  -13.6025 C   0  0  0  0  0  0  0  0  0  0  0  0
  -10.3222   43.1332  -12.7136 N   0  0  0  0  0  0  0  0  0  0  0  0
  -12.8041   44.7065  -14.5442 C   0  0  0  0  0  0  0  0  0  0  0  0
  -13.6848   45.0026  -15.5109 N   0  0  0  0  0  0  0  0  0  0  0  0
  -16.3345   43.4186  -21.2266 N   0  0  0  0  0  0  0  0  0  0  0  0
  -17.5040   42.9116  -21.6603 C   0  0  0  0  0  0  0  0  0  0  0  0
  -17.8595   41.5029  -21.4482 C   0  0  0  0  0  0  0  0  0  0  0  0
  -18.3215   41.0565  -20.2312 C   0  0  0  0  0  0  0  0  0  0  0  0
  -18.6430   39.7293  -20.0761 C   0  0  0  0  0  0  0  0  0  0  0  0
  -18.5008   38.8542  -21.1400 C   0  0  0  0  0  0  0  0  0  0  0  0
  -18.9075   37.1407  -20.9674 Cl  0  0  0  0  0  0  0  0  0  0  0  0
  -18.0392   39.2896  -22.3639 C   0  0  0  0  0  0  0  0  0  0  0  0
  -17.7188   40.6216  -22.5117 C   0  0  0  0  0  0  0  0  0  0  0  0
  -17.1195   41.2559  -24.0529 Cl  0  0  0  0  0  0  0  0  0  0  0  0
  -20.0507   43.4878  -24.1205 N   0  0  0  0  0  0  0  0  0  0  0  0
  1  2  1  0
  2  3  2  0
  3  4  1  0
  4  5  2  0
  5  6  1  0
  6  7  2  0
  7  8  1  0
  8  9  2  0
  9 10  1  0
 10 11  1  0
 11 12  1  0
 12 13  1  0
 13 14  1  0
 14 15  2  0
 15 16  1  0
 16 17  2  0
 17 18  1  0
 18 19  3  0
 17 20  1  0
 20 21  2  0
  9 22  1  0
 22 23  2  0
 23 24  1  0
 24 25  2  0
 25 26  1  0
 26 27  2  0
 27 28  1  0
 27 29  1  0
 29 30  2  0
 30 31  1  0
  5 32  1  0
 32  2  1  0
 23  6  1  0
 30 24  1  0
 21 14  1  0
M  END
$$$$
