
     RDKit          3D

 24 28  0  0  0  0  0  0  0  0999 V2000
  -15.0227   42.4443  -18.3779 N   0  0  0  0  0  0  0  0  0  0  0  0
  -14.8655   43.7306  -18.9380 C   0  0  0  0  0  0  0  0  0  0  0  0
  -13.7692   44.4844  -18.6324 N   0  0  0  0  0  0  0  0  0  0  0  0
  -13.6146   45.6978  -19.1877 C   0  0  0  0  0  0  0  0  0  0  0  0
  -14.5306   46.1967  -20.0535 N   0  0  0  0  0  0  0  0  0  0  0  0
  -15.6092   45.5014  -20.3790 C   0  0  0  0  0  0  0  0  0  0  0  0
  -15.7927   44.2345  -19.8123 C   0  0  0  0  0  0  0  0  0  0  0  0
  -16.9557   43.7507  -20.3176 C   0  0  0  0  0  0  0  0  0  0  0  0
  -17.6101   42.4785  -20.0814 C   0  0  0  0  0  0  0  0  0  0  0  0
  -17.7499   41.9930  -18.8091 C   0  0  0  0  0  0  0  0  0  0  0  0
  -18.3365   40.7908  -18.5577 N   0  0  0  0  0  0  0  0  0  0  0  0
  -18.8063   40.0272  -19.5560 C   0  0  0  0  0  0  0  0  0  0  0  0
  -19.4231   38.8164  -19.6091 N   0  0  0  0  0  0  0  0  0  0  0  0
  -19.6839   38.5164  -20.9088 C   0  0  0  0  0  0  0  0  0  0  0  0
  -19.2418   39.5240  -21.7125 C   0  0  0  0  0  0  0  0  0  0  0  0
  -18.6943   40.4672  -20.8734 C   0  0  0  0  0  0  0  0  0  0  0  0
  -18.0912   41.6991  -21.1137 C   0  0  0  0  0  0  0  0  0  0  0  0
  -17.4506   44.7076  -21.1671 N   0  0  0  0  0  0  0  0  0  0  0  0
  -16.6437   45.7492  -21.1993 N   0  0  0  0  0  0  0  0  0  0  0  0
  -16.8254   46.9419  -21.9689 C   0  0  0  0  0  0  0  0  0  0  0  0
  -17.4952   48.0584  -21.2207 C   0  0  0  0  0  0  0  0  0  0  0  0
  -17.8340   49.0259  -22.3540 C   0  0  0  0  0  0  0  0  0  0  0  0
  -17.9125   48.2051  -23.6067 C   0  0  0  0  0  0  0  0  0  0  0  0
  -17.7732   46.7478  -23.1460 C   0  0  0  0  0  0  0  0  0  0  0  0
  1  2  1  0
  2  3  2  0
  3  4  1  0
  4  5  2  0
  5  6  1  0
  6  7  2  0
  7  8  1  0
  8  9  1  0
  9 10  2  0
 10 11  1  0
 11 12  2  0
 12 13  1  0
 13 14  1  0
 14 15  2  0
 15 16  1  0
 16 17  2  0
  8 18  2  0
 18 19  1  0
 19 20  1  0
 20 21  1  0
 21 22  1  0
 22 23  1  0
 23 24  1  0
  7  2  1  0
 17  9  1  0
 24 20  1  0
 19  6  1  0
 16 12  1  0
M  END
$$$$
