
     RDKit          3D

 46 51  0  0  0  0  0  0  0  0999 V2000
  -13.4015   13.2639  -48.4675 C   0  0  0  0  0  0  0  0  0  0  0  0
  -11.9506   13.4923  -48.2645 C   0  0  0  0  0  0  0  0  0  0  0  0
  -11.1557   12.2987  -47.8187 C   0  0  0  0  0  0  0  0  0  0  0  0
  -11.3442   14.6382  -48.4470 C   0  0  0  0  0  0  0  0  0  0  0  0
  -11.3980   15.8377  -47.6146 C   0  0  0  0  0  0  0  0  0  0  0  0
  -12.7248   16.3943  -47.2709 C   0  0  0  0  0  0  0  0  0  0  0  0
  -12.6485   17.6754  -46.4732 C   0  0  2  0  0  0  0  0  0  0  0  0
  -12.8869   18.8861  -47.3687 C   0  0  0  0  0  0  0  0  0  0  0  0
  -11.2936   17.7406  -45.8819 C   0  0  0  0  0  0  0  0  0  0  0  0
  -11.0858   17.8268  -44.6016 C   0  0  0  0  0  0  0  0  0  0  0  0
  -12.1873   17.8654  -43.6659 C   0  0  0  0  0  0  0  0  0  0  0  0
  -11.9913   17.9527  -42.3063 C   0  0  0  0  0  0  0  0  0  0  0  0
  -10.7255   18.0142  -41.7517 O   0  0  0  0  0  0  0  0  0  0  0  0
  -13.0741   17.9794  -41.4849 C   0  0  0  0  0  0  0  0  0  0  0  0
  -14.3878   17.9236  -41.9796 C   0  0  0  0  0  0  0  0  0  0  0  0
  -14.6108   17.8403  -43.3261 C   0  0  0  0  0  0  0  0  0  0  0  0
  -15.9169   17.8581  -43.9812 C   0  0  0  0  0  0  0  0  0  0  0  0
  -16.4004   19.2086  -44.3096 C   0  0  0  0  0  0  0  0  0  0  0  0
  -17.5328   19.6992  -44.6806 C   0  0  0  0  0  0  0  0  0  0  0  0
  -17.6578   21.2300  -44.7750 C   0  0  0  0  0  0  0  0  0  0  0  0
  -18.7479   18.9739  -45.0663 C   0  0  0  0  0  0  0  0  0  0  0  0
  -13.4749   17.8083  -44.1761 C   0  0  0  0  0  0  0  0  0  0  0  0
  -13.6928   17.7186  -45.5259 O   0  0  0  0  0  0  0  0  0  0  0  0
  -15.4924   17.9478  -41.1118 O   0  0  0  0  0  0  0  0  0  0  0  0
  -15.4285   17.6137  -39.7785 C   0  0  2  0  0  0  0  0  0  0  0  0
  -14.0827   17.9438  -39.1577 C   0  0  0  0  0  0  0  0  0  0  0  0
  -14.1126   18.0684  -37.8498 C   0  0  0  0  0  0  0  0  0  0  0  0
  -15.0947   17.0544  -37.2378 C   0  0  2  0  0  0  0  0  0  0  0  0
  -15.0063   15.8494  -38.1503 C   0  0  0  0  0  0  0  0  0  0  0  0
  -15.5616   16.0691  -39.5226 C   0  0  1  0  0  0  0  0  0  0  0  0
  -17.0302   15.9342  -39.6658 C   0  0  0  0  0  0  0  0  0  0  0  0
  -17.6347   14.8849  -38.7595 C   0  0  0  0  0  0  0  0  0  0  0  0
  -17.2986   15.4623  -41.1026 C   0  0  0  0  0  0  0  0  0  0  0  0
  -17.6050   17.1534  -39.4916 O   0  0  0  0  0  0  0  0  0  0  0  0
  -16.5891   18.0444  -38.9860 C   0  0  2  0  0  0  0  0  0  0  0  0
  -17.1257   19.4355  -39.1685 C   0  0  0  0  0  0  0  0  0  0  0  0
  -18.2786   19.4753  -40.0792 C   0  0  0  0  0  0  0  0  0  0  0  0
  -19.0353   20.5337  -40.1903 C   0  0  0  0  0  0  0  0  0  0  0  0
  -19.7177   20.8314  -41.5058 C   0  0  0  0  0  0  0  0  0  0  0  0
  -19.3036   21.4441  -39.1155 C   0  0  0  0  0  0  0  0  0  0  0  0
  -19.1017   21.2679  -37.9016 O   0  0  0  0  0  0  0  0  0  0  0  0
  -19.8671   22.7107  -39.4205 O   0  0  0  0  0  0  0  0  0  0  0  0
  -16.4184   17.6894  -37.5417 C   0  0  0  0  0  0  0  0  0  0  0  0
  -17.2575   17.8899  -36.6935 O   0  0  0  0  0  0  0  0  0  0  0  0
  -12.9473   17.9933  -40.0284 C   0  0  0  0  0  0  0  0  0  0  0  0
  -11.7895   18.0515  -39.5294 O   0  0  0  0  0  0  0  0  0  0  0  0
  1  2  1  0
  2  3  1  0
  2  4  2  3
  4  5  1  0
  5  6  1  0
  6  7  1  0
  7  8  1  6
  7  9  1  0
  9 10  2  0
 10 11  1  0
 11 12  1  0
 12 13  1  0
 12 14  2  0
 14 15  1  0
 15 16  2  0
 16 17  1  0
 17 18  1  0
 18 19  2  3
 19 20  1  0
 19 21  1  0
 16 22  1  0
 22 23  1  0
 15 24  1  0
 25 24  1  6
 25 26  1  0
 26 27  2  0
 27 28  1  0
 28 29  1  6
 29 30  1  0
 30 31  1  1
 31 32  1  0
 31 33  1  0
 31 34  1  0
 34 35  1  0
 35 36  1  1
 36 37  1  0
 37 38  2  0
 38 39  1  0
 38 40  1  0
 40 41  2  0
 40 42  1  0
 35 43  1  0
 43 44  2  0
 26 45  1  0
 45 46  2  0
 23  7  1  0
 30 25  1  0
 22 11  2  0
 35 25  1  0
 45 14  1  0
 43 28  1  0
M  END
$$$$
