
     RDKit          3D

 24 25  0  0  0  0  0  0  0  0999 V2000
  -23.3357    0.6508  -32.5785 C   0  0  0  0  0  0  0  0  0  0  0  0
  -21.8969    0.2836  -32.2302 C   0  0  0  0  0  0  0  0  0  0  0  0
  -21.8490   -0.1940  -30.8825 N   0  0  0  0  0  0  0  0  0  0  0  0
  -21.0567    1.4984  -32.4615 C   0  0  0  0  0  0  0  0  0  0  0  0
  -19.5891    1.2780  -32.3903 C   0  0  0  0  0  0  0  0  0  0  0  0
  -19.1427   -0.0203  -32.8439 N   0  0  0  0  0  0  0  0  0  0  0  0
  -17.7356   -0.2559  -33.0476 C   0  0  0  0  0  0  0  0  0  0  0  0
  -16.8538    0.7598  -32.7489 C   0  0  0  0  0  0  0  0  0  0  0  0
  -15.5625    0.5349  -32.9410 N   0  0  0  0  0  0  0  0  0  0  0  0
  -15.0314   -0.6305  -33.4144 C   0  0  0  0  0  0  0  0  0  0  0  0
  -13.5972   -0.7002  -33.5615 C   0  0  0  0  0  0  0  0  0  0  0  0
  -12.9375   -1.8024  -34.0228 C   0  0  0  0  0  0  0  0  0  0  0  0
  -11.5406   -1.7481  -34.1212 C   0  0  0  0  0  0  0  0  0  0  0  0
  -10.8425   -0.6239  -33.7670 C   0  0  0  0  0  0  0  0  0  0  0  0
  -11.4835    0.5034  -33.2980 C   0  0  0  0  0  0  0  0  0  0  0  0
  -10.6326    1.9486  -32.8386 Cl  0  0  0  0  0  0  0  0  0  0  0  0
  -12.8504    0.4334  -33.2079 C   0  0  0  0  0  0  0  0  0  0  0  0
  -13.6847    1.8806  -32.6050 Cl  0  0  0  0  0  0  0  0  0  0  0  0
  -15.9177   -1.6098  -33.6992 C   0  0  0  0  0  0  0  0  0  0  0  0
  -15.5634   -2.8886  -34.1993 N   0  0  0  0  0  0  0  0  0  0  0  0
  -17.2651   -1.4041  -33.5095 N   0  0  0  0  0  0  0  0  0  0  0  0
  -20.0290   -1.1264  -33.1110 C   0  0  0  0  0  0  0  0  0  0  0  0
  -21.4671   -0.7553  -33.2488 C   0  0  0  0  0  0  0  0  0  0  0  0
  -16.9837   -0.2789  -33.1118 Cl  0  0  0  0  0  0  0  0  0  0  0  0
  1  2  1  0
  2  3  1  0
  2  4  1  0
  4  5  1  0
  5  6  1  0
  6  7  1  0
  7  8  2  0
  8  9  1  0
  9 10  2  0
 10 11  1  0
 11 12  2  0
 12 13  1  0
 13 14  2  0
 14 15  1  0
 15 16  1  0
 15 17  2  0
 17 18  1  0
 10 19  1  0
 19 20  1  0
 19 21  2  0
  6 22  1  0
 22 23  1  0
 23  2  1  0
 21  7  1  0
 17 11  1  0
M  END
$$$$
