
     RDKit          3D

 13 13  0  0  0  0  0  0  0  0999 V2000
  -20.4872   13.3678  -30.5239 C   0  0  0  0  0  0  0  0  0  0  0  0
  -20.9032   14.7465  -30.4017 N   0  0  0  0  0  0  0  0  0  0  0  0
  -19.8203   15.6736  -30.2555 C   0  0  0  0  0  0  0  0  0  0  0  0
  -19.6304   16.5602  -31.4542 C   0  0  1  0  0  0  0  0  0  0  0  0
  -20.8371   17.2619  -31.6624 O   0  0  0  0  0  0  0  0  0  0  0  0
  -18.5080   17.5168  -31.2520 C   0  0  0  0  0  0  0  0  0  0  0  0
  -17.2355   17.2100  -31.6873 C   0  0  0  0  0  0  0  0  0  0  0  0
  -16.1829   18.1050  -31.4987 C   0  0  0  0  0  0  0  0  0  0  0  0
  -16.3761   19.3165  -30.8767 C   0  0  0  0  0  0  0  0  0  0  0  0
  -15.3124   20.2187  -30.6869 O   0  0  0  0  0  0  0  0  0  0  0  0
  -17.6481   19.6253  -30.4408 C   0  0  0  0  0  0  0  0  0  0  0  0
  -17.8452   20.8461  -29.8134 O   0  0  0  0  0  0  0  0  0  0  0  0
  -18.7045   18.7299  -30.6286 C   0  0  0  0  0  0  0  0  0  0  0  0
  1  2  1  0
  2  3  1  0
  3  4  1  0
  4  5  1  1
  4  6  1  0
  6  7  2  0
  7  8  1  0
  8  9  2  0
  9 10  1  0
  9 11  1  0
 11 12  1  0
 11 13  2  0
 13  6  1  0
M  END
$$$$
