
     RDKit          3D

 32 36  0  0  0  0  0  0  0  0999 V2000
  -18.4691   38.7529  -17.4261 N   0  0  0  0  0  0  0  0  0  0  0  0
  -18.7353   39.8846  -17.6514 C   0  0  0  0  0  0  0  0  0  0  0  0
  -19.0658   41.2830  -17.9040 C   0  0  0  0  0  0  0  0  0  0  0  0
  -19.4281   42.1071  -16.8302 C   0  0  0  0  0  0  0  0  0  0  0  0
  -19.7224   43.4010  -17.2830 C   0  0  0  0  0  0  0  0  0  0  0  0
  -19.6737   43.8213  -18.4889 N   0  0  0  0  0  0  0  0  0  0  0  0
  -19.3165   43.0537  -19.5585 C   0  0  0  0  0  0  0  0  0  0  0  0
  -19.0896   43.4872  -20.8728 N   0  0  0  0  0  0  0  0  0  0  0  0
  -19.4743   42.5714  -21.9351 C   0  0  0  0  0  0  0  0  0  0  0  0
  -20.4329   42.9003  -22.8809 C   0  0  0  0  0  0  0  0  0  0  0  0
  -20.8034   41.9374  -23.8860 C   0  0  0  0  0  0  0  0  0  0  0  0
  -21.7336   42.2472  -24.9593 C   0  0  0  0  0  0  0  0  0  0  0  0
  -22.0562   40.9562  -25.7552 C   0  0  0  0  0  0  0  0  0  0  0  0
  -23.2542   41.2747  -26.5800 C   0  0  0  0  0  0  0  0  0  0  0  0
  -23.3035   42.5205  -27.2554 N   0  0  0  0  0  0  0  0  0  0  0  0
  -23.5207   42.2726  -28.6378 C   0  0  0  0  0  0  0  0  0  0  0  0
  -22.6824   42.9609  -29.6585 C   0  0  0  0  0  0  0  0  0  0  0  0
  -23.3857   44.1557  -29.4531 O   0  0  0  0  0  0  0  0  0  0  0  0
  -24.5049   43.3479  -29.1515 C   0  0  0  0  0  0  0  0  0  0  0  0
  -22.4209   43.5616  -26.9688 C   0  0  0  0  0  0  0  0  0  0  0  0
  -21.3079   43.2576  -25.9817 C   0  0  0  0  0  0  0  0  0  0  0  0
  -20.1198   40.7630  -23.7638 C   0  0  0  0  0  0  0  0  0  0  0  0
  -19.2110   40.3992  -22.8920 C   0  0  0  0  0  0  0  0  0  0  0  0
  -18.5164   39.1739  -22.8086 N   0  0  0  0  0  0  0  0  0  0  0  0
  -17.7018   38.7714  -21.6817 C   0  0  0  0  0  0  0  0  0  0  0  0
  -17.9478   37.2972  -21.5578 C   0  0  0  0  0  0  0  0  0  0  0  0
  -18.1735   36.8496  -22.9612 C   0  0  0  0  0  0  0  0  0  0  0  0
  -17.0288   36.2004  -23.3905 F   0  0  0  0  0  0  0  0  0  0  0  0
  -19.2353   35.9583  -23.0511 F   0  0  0  0  0  0  0  0  0  0  0  0
  -18.4653   38.0907  -23.7546 C   0  0  0  0  0  0  0  0  0  0  0  0
  -18.9056   41.3772  -21.9543 N   0  0  0  0  0  0  0  0  0  0  0  0
  -19.0180   41.7390  -19.1618 C   0  0  0  0  0  0  0  0  0  0  0  0
  1  2  3  0
  2  3  1  0
  3  4  2  0
  4  5  1  0
  5  6  2  0
  6  7  1  0
  7  8  1  0
  8  9  1  0
  9 10  2  0
 10 11  1  0
 11 12  1  0
 12 13  1  0
 13 14  1  0
 14 15  1  0
 15 16  1  0
 16 17  1  0
 17 18  1  0
 18 19  1  0
 15 20  1  0
 20 21  1  0
 11 22  2  0
 22 23  1  0
 23 24  1  0
 24 25  1  0
 25 26  1  0
 26 27  1  0
 27 28  1  0
 27 29  1  0
 27 30  1  0
 23 31  2  0
  7 32  2  0
 32  3  1  0
 31  9  1  0
 21 12  1  0
 30 24  1  0
 19 16  1  0
M  END
$$$$
