
     RDKit          3D

 13 14  0  0  0  0  0  0  0  0999 V2000
  -21.2680   35.1104  -22.2163 C   0  0  0  0  0  0  0  0  0  0  0  0
  -20.2343   36.1553  -21.9187 C   0  0  0  0  0  0  0  0  0  0  0  0
  -20.0204   37.2525  -22.5208 N   0  0  0  0  0  0  0  0  0  0  0  0
  -18.9635   37.9904  -21.9676 N   0  0  0  0  0  0  0  0  0  0  0  0
  -18.5010   39.2531  -22.4335 C   0  0  0  0  0  0  0  0  0  0  0  0
  -18.4301   39.4640  -23.8073 C   0  0  0  0  0  0  0  0  0  0  0  0
  -17.9901   40.6659  -24.3032 C   0  0  0  0  0  0  0  0  0  0  0  0
  -17.6130   41.6790  -23.4570 C   0  0  0  0  0  0  0  0  0  0  0  0
  -17.6853   41.4641  -22.0986 C   0  0  0  0  0  0  0  0  0  0  0  0
  -18.1307   40.2474  -21.5970 C   0  0  0  0  0  0  0  0  0  0  0  0
  -18.4693   37.2358  -20.8805 C   0  0  0  0  0  0  0  0  0  0  0  0
  -17.5019   37.5338  -20.0898 O   0  0  0  0  0  0  0  0  0  0  0  0
  -19.2839   36.0048  -20.8080 C   0  0  0  0  0  0  0  0  0  0  0  0
  1  2  1  0
  2  3  2  0
  3  4  1  0
  4  5  1  0
  5  6  2  0
  6  7  1  0
  7  8  2  0
  8  9  1  0
  9 10  2  0
  4 11  1  0
 11 12  2  0
 11 13  1  0
 13  2  1  0
 10  5  1  0
M  END
$$$$
