
     RDKit          3D

 14 14  0  0  0  0  0  0  0  0999 V2000
  -16.1241   42.4152  -19.6719 Cl  0  0  0  0  0  0  0  0  0  0  0  0
  -11.4103   44.7105  -18.8256 N   0  0  0  0  0  0  0  0  0  0  0  0
  -12.6231   45.4681  -19.0791 C   0  0  0  0  0  0  0  0  0  0  0  0
  -13.8314   44.5887  -18.9906 C   0  0  0  0  0  0  0  0  0  0  0  0
  -14.6502   44.2440  -17.9651 C   0  0  0  0  0  0  0  0  0  0  0  0
  -15.6731   43.4146  -18.2310 C   0  0  0  0  0  0  0  0  0  0  0  0
  -15.8640   42.9529  -19.4718 C   0  0  0  0  0  0  0  0  0  0  0  0
  -16.8774   42.0582  -20.0188 C   0  0  0  0  0  0  0  0  0  0  0  0
  -17.8315   41.5577  -19.2074 C   0  0  0  0  0  0  0  0  0  0  0  0
  -18.7957   40.7011  -19.7482 C   0  0  0  0  0  0  0  0  0  0  0  0
  -18.7685   40.3733  -21.0984 C   0  0  0  0  0  0  0  0  0  0  0  0
  -17.7867   40.8970  -21.8999 C   0  0  0  0  0  0  0  0  0  0  0  0
  -16.8416   41.7424  -21.3471 C   0  0  0  0  0  0  0  0  0  0  0  0
  -14.5683   43.6810  -20.3862 S   0  0  0  0  0  0  0  0  0  0  0  0
  2  3  1  0
  3  4  1  0
  4  5  2  0
  5  6  1  0
  6  7  2  0
  7  8  1  0
  8  9  2  0
  9 10  1  0
 10 11  2  0
 11 12  1  0
 12 13  2  0
  7 14  1  0
 14  4  1  0
 13  8  1  0
M  END
$$$$
