
     RDKit          3D

 29 32  0  0  0  0  0  0  0  0999 V2000
  -22.4578   36.5503  -22.8091 C   0  0  0  0  0  0  0  0  0  0  0  0
  -21.3790   36.7505  -21.7530 C   0  0  2  0  0  0  0  0  0  0  0  0
  -21.6773   38.0720  -21.0622 C   0  0  0  0  0  0  0  0  0  0  0  0
  -20.8260   38.9704  -21.8453 C   0  0  1  0  0  0  0  0  0  0  0  0
  -20.5748   40.3514  -21.3586 C   0  0  2  0  0  0  0  0  0  0  0  0
  -21.8453   40.9642  -20.9370 C   0  0  0  0  0  0  0  0  0  0  0  0
  -21.9417   42.4621  -21.0041 C   0  0  2  0  0  0  0  0  0  0  0  0
  -23.2342   42.9215  -21.0376 F   0  0  0  0  0  0  0  0  0  0  0  0
  -21.1639   42.9812  -22.1943 C   0  0  0  0  0  0  0  0  0  0  0  0
  -21.6958   43.8225  -23.0315 C   0  0  0  0  0  0  0  0  0  0  0  0
  -21.0008   44.3469  -24.1887 C   0  0  0  0  0  0  0  0  0  0  0  0
  -21.5362   45.1612  -24.9843 O   0  0  0  0  0  0  0  0  0  0  0  0
  -19.6394   43.9137  -24.4329 C   0  0  0  0  0  0  0  0  0  0  0  0
  -19.1198   43.0638  -23.5713 C   0  0  0  0  0  0  0  0  0  0  0  0
  -19.7697   42.5046  -22.3794 C   0  0  1  0  0  0  0  0  0  0  0  0
  -18.9353   42.8368  -21.1437 C   0  0  0  0  0  0  0  0  0  0  0  0
  -19.8961   41.0024  -22.5573 C   0  0  2  0  0  0  0  0  0  0  0  0
  -20.8374   40.8584  -23.5954 F   0  0  0  0  0  0  0  0  0  0  0  0
  -18.6545   40.3446  -22.9719 C   0  0  1  0  0  0  0  0  0  0  0  0
  -17.5657   41.0020  -22.3927 O   0  0  0  0  0  0  0  0  0  0  0  0
  -18.5129   38.8924  -22.7544 C   0  0  0  0  0  0  0  0  0  0  0  0
  -19.5039   38.2312  -21.8558 C   0  0  1  0  0  0  0  0  0  0  0  0
  -18.9592   37.9245  -20.5039 C   0  0  0  0  0  0  0  0  0  0  0  0
  -20.0422   36.9202  -22.4490 C   0  0  2  0  0  0  0  0  0  0  0  0
  -20.1822   37.1291  -23.8240 O   0  0  0  0  0  0  0  0  0  0  0  0
  -19.1874   35.7591  -22.2175 C   0  0  0  0  0  0  0  0  0  0  0  0
  -19.1873   35.2276  -21.1210 O   0  0  0  0  0  0  0  0  0  0  0  0
  -18.2943   35.1648  -23.2522 C   0  0  0  0  0  0  0  0  0  0  0  0
  -17.4049   34.2917  -22.6513 O   0  0  0  0  0  0  0  0  0  0  0  0
  2  1  1  6
  2  3  1  0
  4  3  1  1
  4  5  1  0
  5  6  1  6
  6  7  1  0
  7  8  1  6
  7  9  1  0
  9 10  2  0
 10 11  1  0
 11 12  2  0
 11 13  1  0
 13 14  2  0
 14 15  1  0
 15 16  1  1
 15 17  1  0
 17 18  1  6
 17 19  1  0
 19 20  1  1
 19 21  1  0
 21 22  1  0
 22 23  1  1
 22 24  1  0
 24 25  1  6
 24 26  1  0
 26 27  2  0
 26 28  1  0
 28 29  1  0
 24  2  1  0
 22  4  1  0
 17  5  1  0
 15  9  1  0
M  END
$$$$
