
     RDKit          3D

 23 24  0  0  0  0  0  0  0  0999 V2000
  -16.2349   14.3468  -29.3003 N   0  0  0  0  0  0  0  0  0  0  0  0
  -16.7603   15.0648  -30.1096 C   0  0  0  0  0  0  0  0  0  0  0  0
  -17.3866   15.8823  -31.0588 C   0  0  0  0  0  0  0  0  0  0  0  0
  -17.4261   17.2307  -30.8157 C   0  0  0  0  0  0  0  0  0  0  0  0
  -16.5494   17.8482  -29.9096 N   0  0  0  0  0  0  0  0  0  0  0  0
  -18.6306   18.1970  -31.6896 S   0  0  0  0  0  0  0  0  0  0  0  0
  -19.7493   18.9293  -30.5209 C   0  0  0  0  0  0  0  0  0  0  0  0
  -20.8068   18.2508  -29.9258 C   0  0  0  0  0  0  0  0  0  0  0  0
  -21.6692   18.8510  -29.0445 C   0  0  0  0  0  0  0  0  0  0  0  0
  -21.4978   20.1801  -28.7235 C   0  0  0  0  0  0  0  0  0  0  0  0
  -22.3441   20.8639  -27.8313 N   0  0  0  0  0  0  0  0  0  0  0  0
  -20.4523   20.8550  -29.3107 C   0  0  0  0  0  0  0  0  0  0  0  0
  -19.5915   20.2753  -30.1835 C   0  0  0  0  0  0  0  0  0  0  0  0
  -18.0459   15.4845  -32.2890 C   0  0  0  0  0  0  0  0  0  0  0  0
  -19.3227   14.9602  -32.3030 C   0  0  0  0  0  0  0  0  0  0  0  0
  -20.0150   14.6101  -33.4415 C   0  0  0  0  0  0  0  0  0  0  0  0
  -19.4169   14.7842  -34.6630 C   0  0  0  0  0  0  0  0  0  0  0  0
  -18.1263   15.3116  -34.6892 C   0  0  0  0  0  0  0  0  0  0  0  0
  -17.4564   15.6535  -33.5161 C   0  0  0  0  0  0  0  0  0  0  0  0
  -16.0643   16.1736  -33.6608 C   0  0  0  0  0  0  0  0  0  0  0  0
  -15.9921   17.5048  -33.3765 F   0  0  0  0  0  0  0  0  0  0  0  0
  -15.2332   15.3606  -32.9579 F   0  0  0  0  0  0  0  0  0  0  0  0
  -15.6704   16.0645  -35.0081 F   0  0  0  0  0  0  0  0  0  0  0  0
  1  2  3  0
  2  3  1  0
  3  4  2  0
  4  5  1  0
  4  6  1  0
  6  7  1  0
  7  8  2  0
  8  9  1  0
  9 10  2  0
 10 11  1  0
 10 12  1  0
 12 13  2  0
  3 14  1  0
 14 15  2  0
 15 16  1  0
 16 17  2  0
 17 18  1  0
 18 19  2  0
 19 20  1  0
 20 21  1  0
 20 22  1  0
 20 23  1  0
 13  7  1  0
 19 14  1  0
M  END
$$$$
