
     RDKit          3D

 25 26  0  0  0  0  0  0  0  0999 V2000
  -13.8974   46.2343  -17.8356 C   0  0  0  0  0  0  0  0  0  0  0  0
  -14.4424   46.4762  -19.2287 C   0  0  0  0  0  0  0  0  0  0  0  0
  -13.3820   47.0359  -20.1531 C   0  0  0  0  0  0  0  0  0  0  0  0
  -14.9953   45.2317  -19.7046 N   0  0  2  0  0  4  0  0  0  0  0  0
  -13.9825   44.2293  -19.6369 C   0  0  0  0  0  0  0  0  0  0  0  0
  -15.6228   45.3536  -20.9992 C   0  0  0  0  0  0  0  0  0  0  0  0
  -16.7609   46.3181  -20.7004 C   0  0  0  0  0  0  0  0  0  0  0  0
  -17.1557   46.0048  -19.3003 C   0  0  0  0  0  0  0  0  0  0  0  0
  -16.1516   44.9430  -18.8652 C   0  0  1  0  0  0  0  0  0  0  0  0
  -16.7559   43.6130  -19.1211 C   0  0  0  0  0  0  0  0  0  0  0  0
  -16.4851   43.0445  -20.4830 C   0  0  1  0  0  0  0  0  0  0  0  0
  -17.5863   42.2558  -20.9032 O   0  0  0  0  0  0  0  0  0  0  0  0
  -17.5696   40.8973  -21.0751 C   0  0  0  0  0  0  0  0  0  0  0  0
  -16.4794   40.3058  -20.8376 O   0  0  0  0  0  0  0  0  0  0  0  0
  -18.7326   40.0998  -21.5144 C   0  0  0  0  0  0  0  0  0  0  0  0
  -19.1092   40.5078  -22.9194 C   0  0  0  0  0  0  0  0  0  0  0  0
  -19.4488   41.8452  -23.0265 O   0  0  0  0  0  0  0  0  0  0  0  0
  -19.8571   40.2477  -20.5574 C   0  0  0  0  0  0  0  0  0  0  0  0
  -20.4026   39.1523  -19.9208 C   0  0  0  0  0  0  0  0  0  0  0  0
  -21.4460   39.3105  -19.0352 C   0  0  0  0  0  0  0  0  0  0  0  0
  -21.9319   40.5730  -18.7977 C   0  0  0  0  0  0  0  0  0  0  0  0
  -21.3793   41.6603  -19.4392 C   0  0  0  0  0  0  0  0  0  0  0  0
  -20.3347   41.5239  -20.3292 C   0  0  0  0  0  0  0  0  0  0  0  0
  -16.0738   44.0387  -21.5049 C   0  0  0  0  0  0  0  0  0  0  0  0
  -17.0126   43.4126  -20.1906 Br  0  0  0  0  0 15  0  0  0  0  0  0
  1  2  1  0
  2  3  1  0
  2  4  1  0
  4  5  1  6
  4  6  1  0
  6  7  1  0
  7  8  1  0
  9  8  1  6
  9 10  1  0
 10 11  1  0
 11 12  1  6
 12 13  1  0
 13 14  2  0
 13 15  1  0
 15 16  1  0
 16 17  1  0
 15 18  1  0
 18 19  2  0
 19 20  1  0
 20 21  2  0
 21 22  1  0
 22 23  2  0
 11 24  1  0
  9  4  1  0
 23 18  1  0
 24  6  1  0
M  CHG  2   4   1  25  -1
M  END
$$$$
