
     RDKit          3D

 29 31  0  0  0  0  0  0  0  0999 V2000
  -25.0448   28.6929  -36.8494 C   0  0  0  0  0  0  0  0  0  0  0  0
  -25.8439   28.2712  -35.7911 O   0  0  0  0  0  0  0  0  0  0  0  0
  -25.1284   28.0007  -34.6873 N   0  0  0  0  0  0  0  0  0  0  0  0
  -25.0884   28.9674  -33.6281 C   0  0  0  0  0  0  0  0  0  0  0  0
  -24.4359   26.7617  -34.6120 C   0  0  0  0  0  0  0  0  0  0  0  0
  -23.3544   26.8170  -33.9987 O   0  0  0  0  0  0  0  0  0  0  0  0
  -24.9217   25.5597  -35.1832 N   0  0  0  0  0  0  0  0  0  0  0  0
  -25.9263   25.6469  -36.2123 N   0  0  0  0  0  0  0  0  0  0  0  0
  -26.9067   24.8371  -36.0882 C   0  0  0  0  0  0  0  0  0  0  0  0
  -28.0561   24.6576  -36.9022 C   0  0  0  0  0  0  0  0  0  0  0  0
  -28.0675   24.8022  -38.2836 C   0  0  0  0  0  0  0  0  0  0  0  0
  -29.2059   24.6183  -39.0392 C   0  0  0  0  0  0  0  0  0  0  0  0
  -29.1939   24.7650  -40.3904 F   0  0  0  0  0  0  0  0  0  0  0  0
  -30.3986   24.2765  -38.4308 C   0  0  0  0  0  0  0  0  0  0  0  0
  -30.4238   24.1250  -37.0652 C   0  0  0  0  0  0  0  0  0  0  0  0
  -29.2800   24.3117  -36.3244 C   0  0  0  0  0  0  0  0  0  0  0  0
  -29.3738   24.1448  -34.9694 F   0  0  0  0  0  0  0  0  0  0  0  0
  -26.4890   23.8244  -34.6181 S   0  0  0  0  0  0  0  0  0  0  0  0
  -24.6806   24.1627  -34.9538 C   0  0  2  0  0  0  0  0  0  0  0  0
  -23.7575   23.5647  -34.0567 C   0  0  0  0  0  0  0  0  0  0  0  0
  -23.8674   23.5342  -32.6039 C   0  0  0  0  0  0  0  0  0  0  0  0
  -22.9206   22.9558  -31.6725 C   0  0  0  0  0  0  0  0  0  0  0  0
  -23.2574   23.5233  -30.3384 N   0  0  0  0  0  0  0  0  0  0  0  0
  -24.5328   23.5164  -36.3425 C   0  0  0  0  0  0  0  0  0  0  0  0
  -25.2715   22.4134  -36.6061 C   0  0  0  0  0  0  0  0  0  0  0  0
  -25.1338   21.8156  -37.8798 C   0  0  0  0  0  0  0  0  0  0  0  0
  -24.2571   22.3787  -38.7958 C   0  0  0  0  0  0  0  0  0  0  0  0
  -23.5106   23.4983  -38.5216 C   0  0  0  0  0  0  0  0  0  0  0  0
  -23.6730   24.0677  -37.2425 C   0  0  0  0  0  0  0  0  0  0  0  0
  1  2  1  0
  2  3  1  0
  3  4  1  0
  3  5  1  0
  5  6  2  0
  5  7  1  0
  7  8  1  0
  8  9  2  0
  9 10  1  0
 10 11  2  0
 11 12  1  0
 12 13  1  0
 12 14  2  0
 14 15  1  0
 15 16  2  0
 16 17  1  0
  9 18  1  0
 18 19  1  0
 19 20  1  1
 20 21  1  0
 21 22  1  0
 22 23  1  0
 19 24  1  0
 24 25  2  0
 25 26  1  0
 26 27  2  0
 27 28  1  0
 28 29  2  0
 19  7  1  0
 29 24  1  0
 16 10  1  0
M  END
$$$$
