
     RDKit          3D

 33 36  0  0  0  0  0  0  0  0999 V2000
  -25.4926   17.0113  -37.3692 C   0  0  0  0  0  0  0  0  0  0  0  0
  -25.3448   18.4598  -37.5871 N   0  0  0  0  0  0  0  0  0  0  0  0
  -24.4161   18.9870  -38.5034 C   0  0  0  0  0  0  0  0  0  0  0  0
  -23.8659   20.0857  -38.1626 O   0  0  0  0  0  0  0  0  0  0  0  0
  -24.0392   18.4031  -39.7629 C   0  0  0  0  0  0  0  0  0  0  0  0
  -22.8826   18.8814  -40.4420 N   0  0  0  0  0  0  0  0  0  0  0  0
  -21.7641   18.9247  -39.4854 C   0  0  0  0  0  0  0  0  0  0  0  0
  -21.8242   20.1815  -38.6606 C   0  0  0  0  0  0  0  0  0  0  0  0
  -21.2666   21.3250  -39.5090 C   0  0  0  0  0  0  0  0  0  0  0  0
  -19.8831   21.3930  -39.4257 O   0  0  0  0  0  0  0  0  0  0  0  0
  -18.9636   21.6122  -40.4072 C   0  0  0  0  0  0  0  0  0  0  0  0
  -17.8958   20.7972  -40.7125 C   0  0  0  0  0  0  0  0  0  0  0  0
  -16.9980   21.0626  -41.7111 C   0  0  0  0  0  0  0  0  0  0  0  0
  -15.9122   20.2598  -42.0371 C   0  0  0  0  0  0  0  0  0  0  0  0
  -15.6794   19.0761  -41.2970 N   0  0  0  0  0  0  0  0  0  0  0  0
  -14.4607   18.3665  -41.2426 C   0  0  0  0  0  0  0  0  0  0  0  0
  -13.3776   18.7133  -40.5135 C   0  0  0  0  0  0  0  0  0  0  0  0
  -12.2068   17.9393  -40.5111 C   0  0  0  0  0  0  0  0  0  0  0  0
  -12.1556   16.8009  -41.2669 C   0  0  0  0  0  0  0  0  0  0  0  0
  -13.2322   16.4350  -42.0060 C   0  0  0  0  0  0  0  0  0  0  0  0
  -13.1813   14.9795  -42.9755 Cl  0  0  0  0  0  0  0  0  0  0  0  0
  -14.3789   17.1926  -42.0084 C   0  0  0  0  0  0  0  0  0  0  0  0
  -15.4460   16.8048  -42.7586 F   0  0  0  0  0  0  0  0  0  0  0  0
  -15.1145   20.6484  -43.0419 N   0  0  0  0  0  0  0  0  0  0  0  0
  -15.2963   21.7564  -43.7481 C   0  0  0  0  0  0  0  0  0  0  0  0
  -16.3331   22.5590  -43.4637 N   0  0  0  0  0  0  0  0  0  0  0  0
  -17.1621   22.2197  -42.4699 C   0  0  0  0  0  0  0  0  0  0  0  0
  -18.2422   23.0380  -42.1561 C   0  0  0  0  0  0  0  0  0  0  0  0
  -19.1299   22.7717  -41.1647 C   0  0  0  0  0  0  0  0  0  0  0  0
  -20.1927   23.6317  -40.8965 O   0  0  0  0  0  0  0  0  0  0  0  0
  -20.9477   24.3222  -41.8430 C   0  0  0  0  0  0  0  0  0  0  0  0
  -21.6768   20.9857  -40.9313 C   0  0  0  0  0  0  0  0  0  0  0  0
  -23.0317   20.2525  -40.9232 C   0  0  0  0  0  0  0  0  0  0  0  0
  1  2  1  0
  2  3  1  0
  3  4  2  0
  3  5  1  0
  5  6  1  0
  6  7  1  0
  7  8  1  0
  8  9  1  0
  9 10  1  0
 10 11  1  0
 11 12  2  0
 12 13  1  0
 13 14  2  0
 14 15  1  0
 15 16  1  0
 16 17  2  0
 17 18  1  0
 18 19  2  0
 19 20  1  0
 20 21  1  0
 20 22  2  0
 22 23  1  0
 14 24  1  0
 24 25  2  0
 25 26  1  0
 26 27  2  0
 27 28  1  0
 28 29  2  0
 29 30  1  0
 30 31  1  0
  9 32  1  0
 32 33  1  0
 33  6  1  0
 29 11  1  0
 27 13  1  0
 22 16  1  0
M  END
$$$$
