
     RDKit          3D

 36 38  0  0  0  0  0  0  0  0999 V2000
  -13.9704   46.1696  -22.5733 C   0  0  0  0  0  0  0  0  0  0  0  0
  -14.1706   46.0497  -21.1559 O   0  0  0  0  0  0  0  0  0  0  0  0
  -15.4472   45.7995  -20.6602 C   0  0  0  0  0  0  0  0  0  0  0  0
  -16.3379   45.4520  -21.4482 O   0  0  0  0  0  0  0  0  0  0  0  0
  -15.7756   45.9273  -19.2767 N   0  0  0  0  0  0  0  0  0  0  0  0
  -17.1013   45.5801  -18.8657 C   0  0  1  0  0  0  0  0  0  0  0  0
  -18.0181   46.7732  -19.1938 C   0  0  0  0  0  0  0  0  0  0  0  0
  -17.7036   44.3905  -19.5280 C   0  0  0  0  0  0  0  0  0  0  0  0
  -17.6314   43.1813  -18.7338 N   0  0  0  0  0  0  0  0  0  0  0  0
  -18.2198   41.9467  -19.1974 C   0  0  0  0  0  0  0  0  0  0  0  0
  -18.3596   40.9210  -18.3689 N   0  0  0  0  0  0  0  0  0  0  0  0
  -18.9085   39.7786  -18.7566 C   0  0  0  0  0  0  0  0  0  0  0  0
  -19.3442   39.6606  -20.0571 C   0  0  0  0  0  0  0  0  0  0  0  0
  -19.2119   40.7083  -20.9381 C   0  0  0  0  0  0  0  0  0  0  0  0
  -19.7051   40.5024  -22.2841 C   0  0  0  0  0  0  0  0  0  0  0  0
  -20.1920   41.4270  -23.1971 C   0  0  0  0  0  0  0  0  0  0  0  0
  -20.5614   40.7841  -24.3282 N   0  0  0  0  0  0  0  0  0  0  0  0
  -21.1270   41.3215  -25.5478 C   0  0  0  0  0  0  0  0  0  0  0  0
  -22.6130   41.6562  -25.3712 C   0  0  0  0  0  0  0  0  0  0  0  0
  -21.0207   40.3512  -26.6924 C   0  0  0  0  0  0  0  0  0  0  0  0
  -20.3167   39.5118  -24.1351 N   0  0  0  0  0  0  0  0  0  0  0  0
  -19.7972   39.2931  -22.9122 C   0  0  0  0  0  0  0  0  0  0  0  0
  -19.4226   37.9728  -22.4330 C   0  0  0  0  0  0  0  0  0  0  0  0
  -18.1360   37.6334  -22.0695 C   0  0  0  0  0  0  0  0  0  0  0  0
  -17.8255   36.3554  -21.6231 C   0  0  0  0  0  0  0  0  0  0  0  0
  -16.2009   35.9165  -21.1659 Cl  0  0  0  0  0  0  0  0  0  0  0  0
  -18.8265   35.3796  -21.5330 C   0  0  0  0  0  0  0  0  0  0  0  0
  -20.1077   35.6900  -21.8860 C   0  0  0  0  0  0  0  0  0  0  0  0
  -21.1828   34.7760  -21.8082 N   0  0  0  0  0  0  0  0  0  0  0  0
  -21.5926   33.7971  -20.4858 S   0  0  0  0  0  6  0  0  0  0  0  0
  -22.0161   34.6311  -19.0051 C   0  0  0  0  0  0  0  0  0  0  0  0
  -22.7955   32.9470  -20.8704 O   0  0  0  0  0  0  0  0  0  0  0  0
  -20.4404   32.8295  -20.2566 O   0  0  0  0  0  0  0  0  0  0  0  0
  -20.3767   36.9826  -22.3293 C   0  0  0  0  0  0  0  0  0  0  0  0
  -21.6595   37.3264  -22.6949 F   0  0  0  0  0  0  0  0  0  0  0  0
  -18.6467   41.8290  -20.4709 N   0  0  0  0  0  0  0  0  0  0  0  0
  1  2  1  0
  2  3  1  0
  3  4  2  0
  3  5  1  0
  5  6  1  0
  6  7  1  6
  6  8  1  0
  8  9  1  0
  9 10  1  0
 10 11  2  0
 11 12  1  0
 12 13  2  0
 13 14  1  0
 14 15  1  0
 15 16  2  0
 16 17  1  0
 17 18  1  0
 18 19  1  0
 18 20  1  0
 17 21  1  0
 21 22  2  0
 22 23  1  0
 23 24  2  0
 24 25  1  0
 25 26  1  0
 25 27  2  0
 27 28  1  0
 28 29  1  0
 29 30  1  0
 30 31  1  0
 30 32  2  0
 30 33  2  0
 28 34  2  0
 34 35  1  0
 14 36  2  0
 36 10  1  0
 22 15  1  0
 34 23  1  0
M  END
$$$$
