
     RDKit          3D

 33 35  0  0  0  0  0  0  0  0999 V2000
  -15.5098   45.3523  -19.9986 C   0  0  0  0  0  0  0  0  0  0  0  0
  -16.1114   44.1883  -20.7088 C   0  0  0  0  0  0  0  0  0  0  0  0
  -15.7984   42.8923  -20.3107 C   0  0  0  0  0  0  0  0  0  0  0  0
  -16.3690   41.8330  -20.9849 C   0  0  0  0  0  0  0  0  0  0  0  0
  -17.2302   42.0849  -22.0304 C   0  0  0  0  0  0  0  0  0  0  0  0
  -17.8159   40.9376  -22.7216 C   0  0  0  0  0  0  0  0  0  0  0  0
  -17.9740   40.9756  -23.9773 O   0  0  0  0  0  0  0  0  0  0  0  0
  -18.2040   39.8030  -22.0285 O   0  0  0  0  0  0  0  0  0  0  0  0
  -18.2237   38.5377  -22.6628 C   0  0  0  0  0  0  0  0  0  0  0  0
  -18.7696   37.4954  -21.7312 C   0  0  0  0  0  0  0  0  0  0  0  0
  -18.8457   37.7080  -20.4951 O   0  0  0  0  0  0  0  0  0  0  0  0
  -19.2225   36.2283  -22.2016 N   0  0  0  0  0  0  0  0  0  0  0  0
  -19.6399   35.1971  -21.3086 C   0  0  0  0  0  0  0  0  0  0  0  0
  -19.2470   35.1365  -20.0235 N   0  0  0  0  0  0  0  0  0  0  0  0
  -19.6558   34.1451  -19.1874 C   0  0  0  0  0  0  0  0  0  0  0  0
  -20.5014   33.1350  -19.6024 C   0  0  0  0  0  0  0  0  0  0  0  0
  -20.9606   32.0463  -18.7144 C   0  0  0  0  0  0  0  0  0  0  0  0
  -21.9825   31.3025  -19.2591 F   0  0  0  0  0  0  0  0  0  0  0  0
  -21.4260   32.6380  -17.5440 F   0  0  0  0  0  0  0  0  0  0  0  0
  -19.9090   31.1874  -18.4597 F   0  0  0  0  0  0  0  0  0  0  0  0
  -20.9207   33.1766  -20.9263 C   0  0  0  0  0  0  0  0  0  0  0  0
  -20.4843   34.2013  -21.7496 C   0  0  0  0  0  0  0  0  0  0  0  0
  -21.0067   34.2680  -23.4296 Cl  0  0  0  0  0  0  0  0  0  0  0  0
  -17.5369   43.3815  -22.4209 C   0  0  0  0  0  0  0  0  0  0  0  0
  -16.9711   44.4440  -21.7524 C   0  0  0  0  0  0  0  0  0  0  0  0
  -17.2626   45.7769  -22.1251 N   0  0  0  0  0  0  0  0  0  0  0  0
  -18.3341   46.4376  -21.4417 C   0  0  0  0  0  0  0  0  0  0  0  0
  -18.9511   45.8272  -20.5392 O   0  0  0  0  0  0  0  0  0  0  0  0
  -18.7167   47.7999  -21.7763 C   0  0  0  0  0  0  0  0  0  0  0  0
  -19.7393   48.4978  -21.1740 C   0  0  0  0  0  0  0  0  0  0  0  0
  -19.8148   49.7589  -21.7445 C   0  0  0  0  0  0  0  0  0  0  0  0
  -18.7940   49.7490  -22.6948 C   0  0  0  0  0  0  0  0  0  0  0  0
  -18.1808   48.5945  -22.6818 O   0  0  0  0  0  0  0  0  0  0  0  0
  1  2  1  0
  2  3  2  0
  3  4  1  0
  4  5  2  0
  5  6  1  0
  6  7  2  0
  6  8  1  0
  8  9  1  0
  9 10  1  0
 10 11  2  0
 10 12  1  0
 12 13  1  0
 13 14  2  0
 14 15  1  0
 15 16  2  0
 16 17  1  0
 17 18  1  0
 17 19  1  0
 17 20  1  0
 16 21  1  0
 21 22  2  0
 22 23  1  0
  5 24  1  0
 24 25  2  0
 25 26  1  0
 26 27  1  0
 27 28  2  0
 27 29  1  0
 29 30  2  0
 30 31  1  0
 31 32  2  0
 32 33  1  0
 25  2  1  0
 33 29  1  0
 22 13  1  0
M  END
$$$$
