
     RDKit          3D

 25 27  0  0  0  0  0  0  0  0999 V2000
  -21.9820   41.3830  -25.7194 C   0  0  0  0  0  0  0  0  0  0  0  0
  -21.4956   40.0197  -25.2030 C   0  0  0  0  0  0  0  0  0  0  0  0
  -20.5271   39.4176  -26.1899 C   0  0  0  0  0  0  0  0  0  0  0  0
  -20.8861   40.1665  -23.5390 S   0  0  0  0  0  0  0  0  0  0  0  0
  -19.7411   38.9348  -23.0245 C   0  0  0  0  0  0  0  0  0  0  0  0
  -19.9851   37.5922  -23.3739 C   0  0  0  0  0  0  0  0  0  0  0  0
  -19.1201   36.5985  -23.0307 C   0  0  0  0  0  0  0  0  0  0  0  0
  -18.0049   36.9156  -22.3397 N   0  0  0  0  0  0  0  0  0  0  0  0
  -17.7412   38.2025  -21.9879 C   0  0  0  0  0  0  0  0  0  0  0  0
  -18.5992   39.2292  -22.3218 C   0  0  0  0  0  0  0  0  0  0  0  0
  -18.2973   40.5984  -21.9389 C   0  0  0  0  0  0  0  0  0  0  0  0
  -17.3610   41.3738  -22.5893 C   0  0  0  0  0  0  0  0  0  0  0  0
  -17.1109   42.6719  -22.2148 C   0  0  0  0  0  0  0  0  0  0  0  0
  -17.7937   43.2502  -21.1658 C   0  0  0  0  0  0  0  0  0  0  0  0
  -17.5594   44.6120  -20.7408 C   0  0  0  0  0  0  0  0  0  0  0  0
  -17.3575   45.6970  -20.3922 N   0  0  0  0  0  0  0  0  0  0  0  0
  -18.7398   42.4512  -20.5168 C   0  0  0  0  0  0  0  0  0  0  0  0
  -19.4077   43.0711  -19.4638 C   0  0  0  0  0  0  0  0  0  0  0  0
  -20.3511   42.3187  -18.7944 C   0  0  0  0  0  0  0  0  0  0  0  0
  -20.6252   41.0128  -19.1462 C   0  0  0  0  0  0  0  0  0  0  0  0
  -19.9445   40.4333  -20.1929 C   0  0  0  0  0  0  0  0  0  0  0  0
  -18.9971   41.1517  -20.8840 C   0  0  0  0  0  0  0  0  0  0  0  0
  -22.6960   39.1469  -25.2037 C   0  0  0  0  0  0  0  0  0  0  0  0
  -23.7471   39.5027  -24.6532 O   0  0  0  0  0  0  0  0  0  0  0  0
  -22.6902   37.8947  -25.8220 O   0  0  0  0  0  0  0  0  0  0  0  0
  1  2  1  0
  2  3  1  0
  2  4  1  0
  4  5  1  0
  5  6  2  0
  6  7  1  0
  7  8  2  0
  8  9  1  0
  9 10  2  0
 10 11  1  0
 11 12  2  0
 12 13  1  0
 13 14  2  0
 14 15  1  0
 15 16  3  0
 14 17  1  0
 17 18  2  0
 18 19  1  0
 19 20  2  0
 20 21  1  0
 21 22  2  0
  2 23  1  0
 23 24  2  0
 23 25  1  0
 10  5  1  0
 22 11  1  0
 22 17  1  0
M  END
$$$$
