
     RDKit          3D

 33 35  0  0  0  0  0  0  0  0999 V2000
  -14.1436   19.9416  -41.5525 C   0  0  0  0  0  0  0  0  0  0  0  0
  -15.4738   20.0287  -40.9434 N   0  0  0  0  0  0  0  0  0  0  0  0
  -16.6569   20.0738  -41.7276 C   0  0  0  0  0  0  0  0  0  0  0  0
  -16.5317   19.9738  -42.9739 O   0  0  0  0  0  0  0  0  0  0  0  0
  -17.9790   20.2296  -41.1316 C   0  0  0  0  0  0  0  0  0  0  0  0
  -18.1258   20.1683  -39.7697 C   0  0  0  0  0  0  0  0  0  0  0  0
  -19.3794   20.3156  -39.1966 C   0  0  0  0  0  0  0  0  0  0  0  0
  -19.5879   20.2629  -37.8301 O   0  0  0  0  0  0  0  0  0  0  0  0
  -20.5656   21.0076  -37.1839 C   0  0  0  0  0  0  0  0  0  0  0  0
  -21.6620   20.3451  -36.6748 C   0  0  0  0  0  0  0  0  0  0  0  0
  -22.6258   21.0931  -36.0358 C   0  0  0  0  0  0  0  0  0  0  0  0
  -22.5143   22.4768  -35.8982 C   0  0  0  0  0  0  0  0  0  0  0  0
  -23.5199   23.2310  -35.2353 N   0  0  0  0  0  0  0  0  0  0  0  0
  -24.7464   23.6117  -35.8723 C   0  0  0  0  0  0  0  0  0  0  0  0
  -25.1137   22.9345  -36.8307 O   0  0  0  0  0  0  0  0  0  0  0  0
  -25.5068   24.7161  -35.4247 N   0  0  0  0  0  0  0  0  0  0  0  0
  -26.8496   24.9562  -35.7439 C   0  0  0  0  0  0  0  0  0  0  0  0
  -27.4790   25.9965  -35.0443 C   0  0  0  0  0  0  0  0  0  0  0  0
  -28.7875   26.3537  -35.2426 C   0  0  0  0  0  0  0  0  0  0  0  0
  -29.5490   25.6686  -36.1752 C   0  0  0  0  0  0  0  0  0  0  0  0
  -31.2119   26.0753  -36.4703 Cl  0  0  0  0  0  0  0  0  0  0  0  0
  -28.9628   24.6408  -36.8806 C   0  0  0  0  0  0  0  0  0  0  0  0
  -29.7524   23.8862  -37.8881 C   0  0  0  0  0  0  0  0  0  0  0  0
  -28.9479   22.8698  -38.3860 F   0  0  0  0  0  0  0  0  0  0  0  0
  -30.9184   23.3758  -37.3227 F   0  0  0  0  0  0  0  0  0  0  0  0
  -30.1331   24.7444  -38.9062 F   0  0  0  0  0  0  0  0  0  0  0  0
  -27.6242   24.3062  -36.6497 C   0  0  0  0  0  0  0  0  0  0  0  0
  -21.4118   23.1385  -36.4108 C   0  0  0  0  0  0  0  0  0  0  0  0
  -21.2767   24.4808  -36.2921 F   0  0  0  0  0  0  0  0  0  0  0  0
  -20.4528   22.3826  -37.0483 C   0  0  0  0  0  0  0  0  0  0  0  0
  -20.4817   20.5248  -40.0064 C   0  0  0  0  0  0  0  0  0  0  0  0
  -20.3027   20.5820  -41.3773 C   0  0  0  0  0  0  0  0  0  0  0  0
  -19.0562   20.4333  -41.9099 N   0  0  0  0  0  0  0  0  0  0  0  0
  1  2  1  0
  2  3  1  0
  3  4  2  0
  3  5  1  0
  5  6  2  0
  6  7  1  0
  7  8  1  0
  8  9  1  0
  9 10  2  0
 10 11  1  0
 11 12  2  0
 12 13  1  0
 13 14  1  0
 14 15  2  0
 14 16  1  0
 16 17  1  0
 17 18  2  0
 18 19  1  0
 19 20  2  0
 20 21  1  0
 20 22  1  0
 22 23  1  0
 23 24  1  0
 23 25  1  0
 23 26  1  0
 22 27  2  0
 12 28  1  0
 28 29  1  0
 28 30  2  0
  7 31  2  0
 31 32  1  0
 32 33  2  0
 33  5  1  0
 30  9  1  0
 27 17  1  0
M  END
$$$$
