
     RDKit          3D

 14 16  0  0  0  0  0  0  0  0999 V2000
  -18.6303   39.0835  -20.3178 O   0  0  0  0  0  0  0  0  0  0  0  0
  -18.2213   37.9750  -20.7118 C   0  0  0  0  0  0  0  0  0  0  0  0
  -17.0703   37.4165  -20.4370 O   0  0  0  0  0  0  0  0  0  0  0  0
  -16.9588   36.2619  -21.0050 N   0  0  0  0  0  0  0  0  0  0  0  0
  -18.0929   36.0221  -21.7027 C   0  0  0  0  0  0  0  0  0  0  0  0
  -18.4644   34.9445  -22.4711 C   0  0  0  0  0  0  0  0  0  0  0  0
  -19.6677   34.9806  -23.0545 N   0  0  0  0  0  0  0  0  0  0  0  0
  -20.4677   36.0683  -22.8675 C   0  0  0  0  0  0  0  0  0  0  0  0
  -21.7098   36.0414  -23.5044 C   0  0  0  0  0  0  0  0  0  0  0  0
  -22.5367   37.1303  -23.3303 C   0  0  0  0  0  0  0  0  0  0  0  0
  -22.1764   38.2103  -22.5662 C   0  0  0  0  0  0  0  0  0  0  0  0
  -20.9365   38.2354  -21.9314 C   0  0  0  0  0  0  0  0  0  0  0  0
  -20.1012   37.1514  -22.0987 C   0  0  0  0  0  0  0  0  0  0  0  0
  -18.8767   37.1192  -21.5026 N   0  0  0  0  0  0  0  0  0  0  0  0
  1  2  2  0
  2  3  1  0
  3  4  1  0
  4  5  2  0
  5  6  1  0
  6  7  2  0
  7  8  1  0
  8  9  2  0
  9 10  1  0
 10 11  2  0
 11 12  1  0
 12 13  2  0
 13 14  1  0
 14  2  1  0
 14  5  1  0
 13  8  1  0
M  END
$$$$
