
     RDKit          3D

 39 39  0  0  0  0  0  0  0  0999 V2000
  -24.4057   15.9003  -21.0739 C   0  0  0  0  0  0  0  0  0  0  0  0
  -25.0646   14.5139  -20.8610 C   0  0  0  0  0  0  0  0  0  0  0  0
  -23.9275   13.5408  -20.6679 C   0  0  0  0  0  0  0  0  0  0  0  0
  -25.8638   14.2755  -22.1042 C   0  0  0  0  0  0  0  0  0  0  0  0
  -26.6094   13.0136  -22.2190 C   0  0  2  0  0  0  0  0  0  0  0  0
  -27.3464   12.8797  -23.4502 N   0  0  0  0  0  0  0  0  0  0  0  0
  -28.4257   14.1478  -23.8361 P   0  0  0  0  0  5  0  0  0  0  0  0
  -29.4313   14.5149  -22.8050 O   0  0  0  0  0  0  0  0  0  0  0  0
  -29.2998   13.6783  -25.2283 O   0  0  0  0  0  1  0  0  0  0  0  0
  -27.4966   15.4934  -24.3195 O   0  0  0  0  0  0  0  0  0  0  0  0
  -28.2814   16.6291  -24.5045 C   0  0  2  0  0  0  0  0  0  0  0  0
  -28.2737   17.0493  -25.8182 O   0  0  0  0  0  0  0  0  0  0  0  0
  -29.0698   18.1518  -26.0141 C   0  0  1  0  0  0  0  0  0  0  0  0
  -30.5455   17.8233  -25.8518 C   0  0  0  0  0  0  0  0  0  0  0  0
  -28.6659   19.3339  -25.1810 C   0  0  2  0  0  0  0  0  0  0  0  0
  -28.2031   20.4082  -25.9511 O   0  0  0  0  0  0  0  0  0  0  0  0
  -27.5056   18.9359  -24.2660 C   0  0  1  0  0  0  0  0  0  0  0  0
  -27.3604   19.9421  -23.3371 O   0  0  0  0  0  0  0  0  0  0  0  0
  -27.9049   17.6779  -23.5125 C   0  0  1  0  0  0  0  0  0  0  0  0
  -28.9621   17.9503  -22.6400 O   0  0  0  0  0  0  0  0  0  0  0  0
  -27.3902   12.6506  -21.0208 C   0  0  0  0  0  0  0  0  0  0  0  0
  -26.9239   12.7805  -19.8467 O   0  0  0  0  0  0  0  0  0  0  0  0
  -28.7086   12.1302  -21.0703 N   0  0  0  0  0  0  0  0  0  0  0  0
  -29.4761   11.7793  -19.8613 C   0  0  1  0  0  0  0  0  0  0  0  0
  -30.7129   12.5507  -19.7577 C   0  0  0  0  0  0  0  0  0  0  0  0
  -31.5287   12.2544  -18.5675 C   0  0  0  0  0  0  0  0  0  0  0  0
  -31.3033   12.7919  -17.2764 C   0  0  0  0  0  0  0  0  0  0  0  0
  -32.1772   12.2730  -16.4147 N   0  0  0  0  0  0  0  0  0  0  0  0
  -32.9958   11.4056  -17.0426 C   0  0  0  0  0  0  0  0  0  0  0  0
  -34.0744   10.6367  -16.6086 C   0  0  0  0  0  0  0  0  0  0  0  0
  -34.7838    9.8431  -17.4708 C   0  0  0  0  0  0  0  0  0  0  0  0
  -34.3910    9.8327  -18.7915 C   0  0  0  0  0  0  0  0  0  0  0  0
  -33.3317   10.5880  -19.2134 C   0  0  0  0  0  0  0  0  0  0  0  0
  -32.5905   11.4023  -18.3594 C   0  0  0  0  0  0  0  0  0  0  0  0
  -29.5394   10.3501  -19.6800 C   0  0  0  0  0  0  0  0  0  0  0  0
  -28.3831    9.8002  -19.3774 O   0  0  0  0  0  0  0  0  0  0  0  0
  -30.5900    9.4960  -19.7743 O   0  0  0  0  0  1  0  0  0  0  0  0
  -28.9562   14.3612  -21.6259 Na  0  0  0  0  0 15  0  0  0  0  0  0
  -28.9562   14.3612  -21.6259 Na  0  0  0  0  0 15  0  0  0  0  0  0
  1  2  1  0
  2  3  1  0
  2  4  1  0
  5  4  1  1
  5  6  1  0
  6  7  1  0
  7  8  2  0
  7  9  1  0
  7 10  1  0
 11 10  1  6
 11 12  1  0
 12 13  1  0
 13 14  1  1
 13 15  1  0
 15 16  1  6
 15 17  1  0
 17 18  1  1
 17 19  1  0
 19 20  1  1
  5 21  1  0
 21 22  2  0
 21 23  1  0
 23 24  1  0
 24 25  1  6
 25 26  1  0
 26 27  2  0
 27 28  1  0
 28 29  1  0
 29 30  2  0
 30 31  1  0
 31 32  2  0
 32 33  1  0
 33 34  2  0
 24 35  1  0
 35 36  2  0
 35 37  1  0
 19 11  1  0
 34 26  1  0
 34 29  1  0
M  CHG  4   9  -1  37  -1  38   1  39   1
M  END
$$$$
