
     RDKit          3D

 31 33  0  0  0  0  0  0  0  0999 V2000
  -18.7695   46.6206  -20.0084 C   0  0  0  0  0  0  0  0  0  0  0  0
  -18.0168   45.4200  -19.5550 C   0  0  0  0  0  0  0  0  0  0  0  0
  -16.8195   45.0988  -20.2272 N   0  0  0  0  0  0  0  0  0  0  0  0
  -16.9946   44.6712  -21.5820 C   0  0  0  0  0  0  0  0  0  0  0  0
  -17.8438   43.3852  -21.6332 C   0  0  0  0  0  0  0  0  0  0  0  0
  -17.3688   42.1431  -21.5577 C   0  0  0  0  0  0  0  0  0  0  0  0
  -18.1866   41.0932  -21.6298 C   0  0  0  0  0  0  0  0  0  0  0  0
  -17.9430   39.6973  -21.5794 N   0  0  0  0  0  0  0  0  0  0  0  0
  -19.0115   38.7826  -21.7067 C   0  0  0  0  0  0  0  0  0  0  0  0
  -20.2825   39.1892  -21.8733 N   0  0  0  0  0  0  0  0  0  0  0  0
  -21.2839   38.3131  -21.9983 C   0  0  0  0  0  0  0  0  0  0  0  0
  -22.7054   38.7673  -22.1861 C   0  0  0  0  0  0  0  0  0  0  0  0
  -20.9746   36.9649  -21.9513 C   0  0  0  0  0  0  0  0  0  0  0  0
  -19.7278   36.4800  -21.7874 N   0  0  0  0  0  0  0  0  0  0  0  0
  -19.1783   35.2562  -21.7103 C   0  0  0  0  0  0  0  0  0  0  0  0
  -19.8468   33.9792  -21.7925 C   0  0  0  0  0  0  0  0  0  0  0  0
  -19.1344   32.7672  -21.6969 C   0  0  0  0  0  0  0  0  0  0  0  0
  -20.0182   31.7671  -21.8080 N   0  0  0  0  0  0  0  0  0  0  0  0
  -21.2260   32.2212  -21.9654 N   0  0  0  0  0  0  0  0  0  0  0  0
  -21.1432   33.5841  -21.9586 C   0  0  0  0  0  0  0  0  0  0  0  0
  -17.7990   35.4435  -21.5327 C   0  0  0  0  0  0  0  0  0  0  0  0
  -17.5924   36.7569  -21.5125 N   0  0  0  0  0  0  0  0  0  0  0  0
  -18.7485   37.4257  -21.6655 C   0  0  0  0  0  0  0  0  0  0  0  0
  -19.7559   41.7891  -21.8168 S   0  0  0  0  0  0  0  0  0  0  0  0
  -19.2366   43.5114  -21.7902 N   0  0  0  0  0  0  0  0  0  0  0  0
  -15.6522   45.8488  -20.0093 C   0  0  0  0  0  0  0  0  0  0  0  0
  -15.6867   47.2870  -20.4873 C   0  0  0  0  0  0  0  0  0  0  0  0
  -14.4942   45.1768  -20.7637 C   0  0  0  0  0  0  0  0  0  0  0  0
  -15.1972   45.8790  -18.5652 C   0  0  0  0  0  0  0  0  0  0  0  0
  -16.1041   46.4483  -17.6912 O   0  0  0  0  0  0  0  0  0  0  0  0
  -18.4720   40.5450  -21.1386 Cl  0  0  0  0  0  0  0  0  0  0  0  0
  1  2  1  0
  2  3  1  0
  3  4  1  0
  4  5  1  0
  5  6  1  0
  6  7  2  0
  7  8  1  0
  8  9  1  0
  9 10  2  0
 10 11  1  0
 11 12  1  0
 11 13  2  0
 13 14  1  0
 14 15  1  0
 15 16  1  0
 16 17  1  0
 17 18  2  0
 18 19  1  0
 19 20  1  0
 15 21  2  0
 21 22  1  0
 22 23  2  0
  7 24  1  0
 24 25  1  0
  3 26  1  0
 26 27  1  0
 26 28  1  0
 26 29  1  0
 29 30  1  0
 25  5  2  0
 23  9  1  0
 23 14  1  0
 20 16  2  0
M  END
$$$$
