
     RDKit          3D

 18 19  0  0  0  0  0  0  0  0999 V2000
  -18.2750   15.8856  -28.9984 O   0  0  0  0  0  0  0  0  0  0  0  0
  -17.8390   14.9582  -29.7645 C   0  0  0  0  0  0  0  0  0  0  0  0
  -18.5834   14.7201  -30.9482 N   0  0  0  0  0  0  0  0  0  0  0  0
  -18.9382   15.8032  -31.8054 C   0  0  0  0  0  0  0  0  0  0  0  0
  -20.2753   16.4166  -31.5536 C   0  0  0  0  0  0  0  0  0  0  0  0
  -20.3912   17.8080  -31.6263 N   0  0  0  0  0  0  0  0  0  0  0  0
  -20.3491   18.2296  -33.0451 C   0  0  0  0  0  0  0  0  0  0  0  0
  -21.5753   17.8626  -33.7794 C   0  0  0  0  0  0  0  0  0  0  0  0
  -22.7084   17.6896  -33.0522 O   0  0  0  0  0  0  0  0  0  0  0  0
  -22.7669   18.2361  -31.8114 C   0  0  0  0  0  0  0  0  0  0  0  0
  -21.5058   18.5060  -31.0997 C   0  0  0  0  0  0  0  0  0  0  0  0
  -16.6454   14.2414  -29.3684 C   0  0  0  0  0  0  0  0  0  0  0  0
  -16.2106   14.2273  -28.0682 C   0  0  0  0  0  0  0  0  0  0  0  0
  -15.0526   13.5242  -27.7317 C   0  0  0  0  0  0  0  0  0  0  0  0
  -14.3253   12.8376  -28.6703 C   0  0  0  0  0  0  0  0  0  0  0  0
  -12.8817   11.9740  -28.1922 Cl  0  0  0  0  0  0  0  0  0  0  0  0
  -14.7640   12.8523  -29.9791 C   0  0  0  0  0  0  0  0  0  0  0  0
  -15.9005   13.5436  -30.3037 C   0  0  0  0  0  0  0  0  0  0  0  0
  1  2  2  0
  2  3  1  0
  3  4  1  0
  4  5  1  0
  5  6  1  0
  6  7  1  0
  7  8  1  0
  8  9  1  0
  9 10  1  0
 10 11  1  0
  2 12  1  0
 12 13  2  0
 13 14  1  0
 14 15  2  0
 15 16  1  0
 15 17  1  0
 17 18  2  0
 11  6  1  0
 18 12  1  0
M  END
$$$$
