
     RDKit          3D

 17 19  0  0  0  0  0  0  0  0999 V2000
  -25.4943   30.8448  -36.5988 C   0  0  0  0  0  0  0  0  0  0  0  0
  -25.9263   29.9341  -35.6250 O   0  0  0  0  0  0  0  0  0  0  0  0
  -25.5264   28.5998  -35.6213 C   0  0  0  0  0  0  0  0  0  0  0  0
  -24.2587   28.3061  -35.1820 C   0  0  0  0  0  0  0  0  0  0  0  0
  -23.8774   26.9858  -35.1837 C   0  0  0  0  0  0  0  0  0  0  0  0
  -24.7182   25.9787  -35.6056 C   0  0  0  0  0  0  0  0  0  0  0  0
  -24.5924   24.6463  -35.7044 N   0  0  0  0  0  0  0  0  0  0  0  0
  -25.7238   24.1000  -36.1847 C   0  0  0  0  0  0  0  0  0  0  0  0
  -26.6524   25.1066  -36.4199 C   0  0  0  0  0  0  0  0  0  0  0  0
  -28.0047   24.9389  -36.9430 C   0  0  0  0  0  0  0  0  0  0  0  0
  -28.8710   25.9346  -36.7514 C   0  0  0  0  0  0  0  0  0  0  0  0
  -30.2793   25.9358  -37.2119 C   0  0  0  0  0  0  0  0  0  0  0  0
  -30.7293   24.5351  -37.1531 N   0  0  0  0  0  0  0  0  0  0  0  0
  -29.9179   23.8541  -38.1332 C   0  0  0  0  0  0  0  0  0  0  0  0
  -28.4604   23.7525  -37.6629 C   0  0  0  0  0  0  0  0  0  0  0  0
  -26.0085   26.2586  -36.0548 C   0  0  0  0  0  0  0  0  0  0  0  0
  -26.3633   27.5863  -36.0425 C   0  0  0  0  0  0  0  0  0  0  0  0
  1  2  1  0
  2  3  1  0
  3  4  2  0
  4  5  1  0
  5  6  2  0
  6  7  1  0
  7  8  1  0
  8  9  2  0
  9 10  1  0
 10 11  2  0
 11 12  1  0
 12 13  1  0
 13 14  1  0
 14 15  1  0
  9 16  1  0
 16 17  2  0
 17  3  1  0
 16  6  1  0
 15 10  1  0
M  END
$$$$
