
     RDKit          3D

 33 37  0  0  0  0  0  0  0  0999 V2000
  -20.2765   -6.1709  -26.0784 C   0  0  0  0  0  0  0  0  0  0  0  0
  -19.6161   -6.0987  -27.3121 O   0  0  0  0  0  0  0  0  0  0  0  0
  -18.6446   -5.2153  -27.6927 C   0  0  0  0  0  0  0  0  0  0  0  0
  -18.1538   -5.1742  -28.9770 C   0  0  0  0  0  0  0  0  0  0  0  0
  -17.1660   -4.2898  -29.4026 C   0  0  0  0  0  0  0  0  0  0  0  0
  -16.7270   -4.2803  -30.7499 N   0  0  0  0  0  0  0  0  0  0  0  0
  -16.1603   -3.0879  -31.3061 C   0  0  0  0  0  0  0  0  0  0  0  0
  -15.3488   -3.4865  -32.5237 C   0  0  0  0  0  0  0  0  0  0  0  0
  -16.0805   -4.2063  -33.4898 N   0  0  0  0  0  0  0  0  0  0  0  0
  -16.4989   -3.5136  -34.6582 C   0  0  0  0  0  0  0  0  0  0  0  0
  -16.9326   -5.2314  -33.0112 C   0  0  0  0  0  0  0  0  0  0  0  0
  -16.8824   -5.4565  -31.5304 C   0  0  0  0  0  0  0  0  0  0  0  0
  -16.6901   -3.4297  -28.4388 C   0  0  0  0  0  0  0  0  0  0  0  0
  -17.1644   -3.4471  -27.1395 C   0  0  0  0  0  0  0  0  0  0  0  0
  -18.1388   -4.3348  -26.7594 C   0  0  0  0  0  0  0  0  0  0  0  0
  -18.5912   -4.3230  -25.4049 N   0  0  0  0  0  0  0  0  0  0  0  0
  -17.7640   -3.8943  -24.3322 C   0  0  0  0  0  0  0  0  0  0  0  0
  -18.1314   -4.1392  -23.0455 N   0  0  0  0  0  0  0  0  0  0  0  0
  -17.3670   -3.7398  -22.0061 C   0  0  0  0  0  0  0  0  0  0  0  0
  -16.1871   -3.0697  -22.2121 C   0  0  0  0  0  0  0  0  0  0  0  0
  -15.8198   -2.8229  -23.5149 C   0  0  0  0  0  0  0  0  0  0  0  0
  -16.6058   -3.2350  -24.5266 N   0  0  0  0  0  0  0  0  0  0  0  0
  -14.6466   -2.1359  -23.9902 N   0  0  0  0  0  0  0  0  0  0  0  0
  -14.7310   -1.6688  -25.3432 C   0  0  0  0  0  0  0  0  0  0  0  0
  -13.4353   -1.8695  -23.2872 C   0  0  0  0  0  0  0  0  0  0  0  0
  -12.3808   -1.6335  -24.1402 C   0  0  0  0  0  0  0  0  0  0  0  0
  -11.1137   -1.3465  -23.6745 C   0  0  0  0  0  0  0  0  0  0  0  0
  -10.9227   -1.3004  -22.2936 C   0  0  0  0  0  0  0  0  0  0  0  0
  -11.9618   -1.5333  -21.4301 C   0  0  0  0  0  0  0  0  0  0  0  0
  -13.2325   -1.8208  -21.9150 C   0  0  0  0  0  0  0  0  0  0  0  0
  -14.2272   -2.0459  -20.8725 C   0  0  0  0  0  0  0  0  0  0  0  0
  -13.9042   -1.5887  -19.7558 O   0  0  0  0  0  0  0  0  0  0  0  0
  -15.4860   -2.7184  -21.0186 N   0  0  0  0  0  0  0  0  0  0  0  0
  1  2  1  0
  2  3  1  0
  3  4  2  0
  4  5  1  0
  5  6  1  0
  6  7  1  0
  7  8  1  0
  8  9  1  0
  9 10  1  0
  9 11  1  0
 11 12  1  0
  5 13  2  0
 13 14  1  0
 14 15  2  0
 15 16  1  0
 16 17  1  0
 17 18  2  0
 18 19  1  0
 19 20  2  0
 20 21  1  0
 21 22  2  0
 21 23  1  0
 23 24  1  0
 23 25  1  0
 25 26  2  0
 26 27  1  0
 27 28  2  0
 28 29  1  0
 29 30  2  0
 30 31  1  0
 31 32  2  0
 31 33  1  0
 15  3  1  0
 22 17  1  0
 30 25  1  0
 12  6  1  0
 33 20  1  0
M  END
$$$$
