
     RDKit          3D

 20 22  0  0  0  0  0  0  0  0999 V2000
  -31.3210   15.2281  -23.3008 O   0  0  0  0  0  0  0  0  0  0  0  0
  -30.3729   14.7253  -22.6581 C   0  0  0  0  0  0  0  0  0  0  0  0
  -30.5259   13.4851  -22.0126 C   0  0  0  0  0  0  0  0  0  0  0  0
  -29.4847   12.9435  -21.3129 C   0  0  0  0  0  0  0  0  0  0  0  0
  -29.6493   11.6519  -20.6427 C   0  0  0  0  0  0  0  0  0  0  0  0
  -30.9394   11.1934  -20.3439 C   0  0  0  0  0  0  0  0  0  0  0  0
  -31.0933    9.9867  -19.7177 C   0  0  0  0  0  0  0  0  0  0  0  0
  -30.0302    9.1861  -19.3598 C   0  0  0  0  0  0  0  0  0  0  0  0
  -28.7617    9.6182  -19.6441 C   0  0  0  0  0  0  0  0  0  0  0  0
  -28.6101   10.8459  -20.2809 C   0  0  0  0  0  0  0  0  0  0  0  0
  -28.3462   13.5993  -21.2552 O   0  0  0  0  0  0  0  0  0  0  0  0
  -28.1208   14.7543  -21.8251 C   0  0  0  0  0  0  0  0  0  0  0  0
  -26.8920   15.3964  -21.7256 C   0  0  0  0  0  0  0  0  0  0  0  0
  -26.6594   16.6153  -22.3290 C   0  0  0  0  0  0  0  0  0  0  0  0
  -25.4329   17.2666  -22.2356 O   0  0  0  0  0  0  0  0  0  0  0  0
  -27.6902   17.1899  -23.0436 C   0  0  0  0  0  0  0  0  0  0  0  0
  -27.5072   18.4187  -23.6712 O   0  0  0  0  0  0  0  0  0  0  0  0
  -28.9269   16.5523  -23.1485 C   0  0  0  0  0  0  0  0  0  0  0  0
  -29.9712   17.1117  -23.8596 O   0  0  0  0  0  0  0  0  0  0  0  0
  -29.1450   15.3313  -22.5385 C   0  0  0  0  0  0  0  0  0  0  0  0
  1  2  2  0
  2  3  1  0
  3  4  2  0
  4  5  1  0
  5  6  2  0
  6  7  1  0
  7  8  2  0
  8  9  1  0
  9 10  2  0
  4 11  1  0
 11 12  1  0
 12 13  2  0
 13 14  1  0
 14 15  1  0
 14 16  2  0
 16 17  1  0
 16 18  1  0
 18 19  1  0
 18 20  2  0
 20  2  1  0
 10  5  1  0
 20 12  1  0
M  END
$$$$
