
     RDKit          3D

 16 17  0  0  0  0  0  0  0  0999 V2000
  -18.4814   42.6314  -22.8158 C   0  0  0  0  0  0  0  0  0  0  0  0
  -18.2447   41.9625  -21.5013 C   0  0  0  0  0  0  0  0  0  0  0  0
  -18.3883   40.6488  -21.4429 C   0  0  0  0  0  0  0  0  0  0  0  0
  -18.7006   39.8440  -22.6517 C   0  0  0  0  0  0  0  0  0  0  0  0
  -19.5893   38.7516  -22.3798 N   0  0  0  0  0  0  0  0  0  0  0  0
  -19.0661   37.5500  -21.8683 C   0  0  0  0  0  0  0  0  0  0  0  0
  -17.7789   37.4198  -21.4840 N   0  0  0  0  0  0  0  0  0  0  0  0
  -17.2995   36.2477  -20.9933 C   0  0  0  0  0  0  0  0  0  0  0  0
  -18.0525   35.1555  -20.8568 N   0  0  0  0  0  0  0  0  0  0  0  0
  -19.3498   35.2374  -21.2290 C   0  0  0  0  0  0  0  0  0  0  0  0
  -20.3249   34.2966  -21.1986 N   0  0  0  0  0  0  0  0  0  0  0  0
  -21.4233   34.8684  -21.6691 C   0  0  0  0  0  0  0  0  0  0  0  0
  -21.1514   36.1593  -21.9956 N   0  0  0  0  0  0  0  0  0  0  0  0
  -19.8534   36.4122  -21.7269 C   0  0  0  0  0  0  0  0  0  0  0  0
  -17.8577   42.7782  -20.3023 C   0  0  0  0  0  0  0  0  0  0  0  0
  -16.8623   43.6908  -20.5871 O   0  0  0  0  0  0  0  0  0  0  0  0
  1  2  1  0
  2  3  2  0
  3  4  1  0
  4  5  1  0
  5  6  1  0
  6  7  2  0
  7  8  1  0
  8  9  2  0
  9 10  1  0
 10 11  1  0
 11 12  1  0
 12 13  2  0
 13 14  1  0
  2 15  1  0
 15 16  1  0
 14  6  1  0
 14 10  2  0
M  END
$$$$
