
     RDKit          3D

 17 18  0  0  0  0  0  0  0  0999 V2000
  -26.6484   10.8112  -19.3988 C   0  0  0  0  0  0  0  0  0  0  0  0
  -27.9398   11.2039  -19.7626 O   0  0  0  0  0  0  0  0  0  0  0  0
  -28.1346   12.0685  -20.8303 C   0  0  0  0  0  0  0  0  0  0  0  0
  -29.0726   11.7772  -21.8034 C   0  0  0  0  0  0  0  0  0  0  0  0
  -29.2418   12.6617  -22.8558 C   0  0  0  0  0  0  0  0  0  0  0  0
  -28.5055   13.8242  -22.9659 C   0  0  0  0  0  0  0  0  0  0  0  0
  -28.6678   14.7103  -24.0105 C   0  0  0  0  0  0  0  0  0  0  0  0
  -29.6741   14.4087  -25.0648 C   0  0  0  0  0  0  0  0  0  0  0  0
  -27.9263   15.8335  -24.0770 N   0  0  0  0  0  0  0  0  0  0  0  0
  -27.0020   16.1212  -23.1187 C   0  0  0  0  0  0  0  0  0  0  0  0
  -26.2504   17.3170  -23.2397 N   0  0  0  0  0  0  0  0  0  0  0  0
  -26.5075   18.1722  -24.3385 C   0  0  0  0  0  0  0  0  0  0  0  0
  -27.4211   17.8517  -25.2175 N   0  0  0  0  0  0  0  0  0  0  0  0
  -25.7467   19.3611  -24.4370 N   0  0  0  0  0  0  0  0  0  0  0  0
  -26.8443   15.2574  -22.1009 N   0  0  0  0  0  0  0  0  0  0  0  0
  -27.5615   14.1230  -21.9919 C   0  0  0  0  0  0  0  0  0  0  0  0
  -27.3984   13.2371  -20.9462 C   0  0  0  0  0  0  0  0  0  0  0  0
  1  2  1  0
  2  3  1  0
  3  4  2  0
  4  5  1  0
  5  6  2  0
  6  7  1  0
  7  8  1  0
  7  9  2  0
  9 10  1  0
 10 11  1  0
 11 12  1  0
 12 13  2  0
 12 14  1  0
 10 15  2  0
 15 16  1  0
 16 17  2  0
 17  3  1  0
 16  6  1  0
M  END
$$$$
