
     RDKit          3D

 57 60  0  0  0  0  0  0  0  0999 V2000
  -28.3691   16.5026  -22.5136 N   0  0  0  0  0  0  0  0  0  0  0  0
  -28.5156   17.7668  -22.2078 C   0  0  0  0  0  0  0  0  0  0  0  0
  -28.6689   18.0885  -20.8507 N   0  0  0  0  0  0  0  0  0  0  0  0
  -28.5145   18.7413  -23.2503 N   0  0  0  0  0  0  0  0  0  0  0  0
  -28.0667   18.3063  -24.5592 C   0  0  0  0  0  0  0  0  0  0  0  0
  -26.6305   18.7410  -24.8204 C   0  0  0  0  0  0  0  0  0  0  0  0
  -26.3892   19.0112  -26.2607 C   0  0  0  0  0  0  0  0  0  0  0  0
  -25.0602   19.5640  -26.6352 C   0  0  0  0  0  0  0  0  0  0  0  0
  -23.8772   18.6678  -26.3955 C   0  0  2  0  0  0  0  0  0  0  0  0
  -22.9958   19.0982  -25.3561 N   0  0  0  0  0  0  0  0  0  0  0  0
  -22.2278   18.2756  -24.5023 C   0  0  0  0  0  0  0  0  0  0  0  0
  -21.1722   18.7509  -23.9413 O   0  0  0  0  0  0  0  0  0  0  0  0
  -22.5848   16.8663  -24.2160 C   0  0  0  0  0  0  0  0  0  0  0  0
  -21.5622   15.9806  -24.8842 C   0  0  0  0  0  0  0  0  0  0  0  0
  -22.3105   14.6862  -25.8780 S   0  0  0  0  0  0  0  0  0  0  0  0
  -21.2844   14.5744  -27.7330 S   0  0  0  0  0  0  0  0  0  0  0  0
  -19.8200   15.5994  -27.6409 C   0  0  0  0  0  0  0  0  0  0  0  0
  -18.9435   15.5009  -28.8862 C   0  0  1  0  0  0  0  0  0  0  0  0
  -18.7199   14.0400  -29.0816 C   0  0  0  0  0  0  0  0  0  0  0  0
  -19.8100   13.2196  -29.4510 N   0  0  0  0  0  0  0  0  0  0  0  0
  -17.5608   13.5924  -28.9083 O   0  0  0  0  0  0  0  0  0  0  0  0
  -19.5685   16.1236  -30.0095 N   0  0  0  0  0  0  0  0  0  0  0  0
  -18.9838   16.5346  -31.2230 C   0  0  0  0  0  0  0  0  0  0  0  0
  -19.4460   15.9836  -32.2958 O   0  0  0  0  0  0  0  0  0  0  0  0
  -17.9249   17.4958  -31.4578 C   0  0  2  0  0  0  0  0  0  0  0  0
  -17.0277   17.7104  -30.2480 C   0  0  0  0  0  0  0  0  0  0  0  0
  -16.1731   18.8608  -30.7309 C   0  0  0  0  0  0  0  0  0  0  0  0
  -16.9148   19.4564  -31.8798 C   0  0  0  0  0  0  0  0  0  0  0  0
  -18.2789   18.8486  -31.7726 N   0  0  0  0  0  0  0  0  0  0  0  0
  -19.5087   19.4797  -31.9218 C   0  0  0  0  0  0  0  0  0  0  0  0
  -19.7587   20.4438  -31.0825 O   0  0  0  0  0  0  0  0  0  0  0  0
  -20.6095   19.2452  -32.8936 C   0  0  2  0  0  0  0  0  0  0  0  0
  -20.0556   18.8474  -34.2216 C   0  0  0  0  0  0  0  0  0  0  0  0
  -20.8027   19.1787  -35.4141 C   0  0  0  0  0  0  0  0  0  0  0  0
  -20.4268   20.1168  -36.3735 C   0  0  0  0  0  0  0  0  0  0  0  0
  -21.3636   20.1115  -37.3147 N   0  0  0  0  0  0  0  0  0  0  0  0
  -22.3340   19.2183  -37.0202 C   0  0  0  0  0  0  0  0  0  0  0  0
  -23.5056   18.8641  -37.6904 C   0  0  0  0  0  0  0  0  0  0  0  0
  -24.3530   17.9147  -37.1804 C   0  0  0  0  0  0  0  0  0  0  0  0
  -24.0279   17.3101  -35.9856 C   0  0  0  0  0  0  0  0  0  0  0  0
  -22.8652   17.6792  -35.3460 C   0  0  0  0  0  0  0  0  0  0  0  0
  -21.9868   18.6358  -35.8359 C   0  0  0  0  0  0  0  0  0  0  0  0
  -21.4578   20.4147  -32.9980 N   0  0  0  0  0  0  0  0  0  0  0  0
  -22.2790   21.0034  -32.0472 C   0  0  0  0  0  0  0  0  0  0  0  0
  -22.1409   22.2509  -31.7673 O   0  0  0  0  0  0  0  0  0  0  0  0
  -23.3401   20.3201  -31.2923 C   0  0  2  0  0  0  0  0  0  0  0  0
  -24.6558   20.6312  -32.0297 C   0  0  0  0  0  0  0  0  0  0  0  0
  -24.7774   22.0246  -32.3733 C   0  0  0  0  0  0  0  0  0  0  0  0
  -24.0055   22.5978  -33.1578 O   0  0  0  0  0  0  0  0  0  0  0  0
  -25.8195   22.7791  -31.7954 O   0  0  0  0  0  0  0  0  0  0  0  0
  -23.5488   20.8274  -29.9514 N   0  0  0  0  0  0  0  0  0  0  0  0
  -22.6546   21.1497  -28.9472 C   0  0  0  0  0  0  0  0  0  0  0  0
  -22.6288   22.3767  -28.5385 O   0  0  0  0  0  0  0  0  0  0  0  0
  -21.6822   20.2862  -28.2297 C   0  0  0  0  0  0  0  0  0  0  0  0
  -22.0361   18.8966  -28.1906 N   0  0  0  0  0  0  0  0  0  0  0  0
  -23.2006   18.3214  -27.6732 C   0  0  0  0  0  0  0  0  0  0  0  0
  -23.7480   17.3948  -28.3721 O   0  0  0  0  0  0  0  0  0  0  0  0
  1  2  2  0
  2  3  1  0
  2  4  1  0
  4  5  1  0
  5  6  1  0
  6  7  1  0
  7  8  1  0
  9  8  1  6
  9 10  1  0
 10 11  1  0
 11 12  2  0
 11 13  1  0
 13 14  1  0
 14 15  1  0
 15 16  1  0
 16 17  1  0
 17 18  1  0
 18 19  1  6
 19 20  1  0
 19 21  2  0
 18 22  1  0
 22 23  1  0
 23 24  2  0
 23 25  1  0
 25 26  1  1
 26 27  1  0
 27 28  1  0
 28 29  1  0
 29 30  1  0
 30 31  2  0
 30 32  1  0
 32 33  1  6
 33 34  1  0
 34 35  2  0
 35 36  1  0
 36 37  1  0
 37 38  2  0
 38 39  1  0
 39 40  2  0
 40 41  1  0
 41 42  2  0
 32 43  1  0
 43 44  1  0
 44 45  2  0
 44 46  1  0
 46 47  1  6
 47 48  1  0
 48 49  2  0
 48 50  1  0
 46 51  1  0
 51 52  1  0
 52 53  2  0
 52 54  1  0
 54 55  1  0
 55 56  1  0
 56 57  2  0
 56  9  1  0
 29 25  1  0
 42 34  1  0
 42 37  1  0
M  END
$$$$
