
     RDKit          3D

 41 45  0  0  0  0  0  0  0  0999 V2000
  -24.8180   42.5133  -25.8555 C   0  0  0  0  0  0  0  0  0  0  0  0
  -23.6527   41.8597  -25.1574 C   0  0  0  0  0  0  0  0  0  0  0  0
  -23.8493   40.8653  -24.2238 C   0  0  0  0  0  0  0  0  0  0  0  0
  -22.7928   40.2561  -23.5808 C   0  0  0  0  0  0  0  0  0  0  0  0
  -21.4827   40.6177  -23.8454 C   0  0  0  0  0  0  0  0  0  0  0  0
  -20.4549   39.9247  -23.1540 N   0  0  0  0  0  0  0  0  0  0  0  0
  -20.4404   38.6175  -22.9271 N   0  0  0  0  0  0  0  0  0  0  0  0
  -19.3209   38.2631  -22.2815 C   0  0  0  0  0  0  0  0  0  0  0  0
  -18.9010   36.8989  -21.8227 C   0  0  0  0  0  0  0  0  0  0  0  0
  -18.5166   36.9765  -20.3823 C   0  0  0  0  0  0  0  0  0  0  0  0
  -20.0504   35.9329  -22.0323 C   0  0  0  0  0  0  0  0  0  0  0  0
  -17.7482   36.4097  -22.6924 C   0  0  0  0  0  0  0  0  0  0  0  0
  -18.6090   39.4528  -22.1104 C   0  0  0  0  0  0  0  0  0  0  0  0
  -19.3213   40.4987  -22.6567 C   0  0  0  0  0  0  0  0  0  0  0  0
  -18.9427   41.8618  -22.7080 N   0  0  0  0  0  0  0  0  0  0  0  0
  -18.4782   42.5284  -21.5517 C   0  0  0  0  0  0  0  0  0  0  0  0
  -18.7154   42.0505  -20.4232 O   0  0  0  0  0  0  0  0  0  0  0  0
  -17.7424   43.7309  -21.7373 N   0  0  0  0  0  0  0  0  0  0  0  0
  -17.3084   44.5381  -20.6468 C   0  0  0  0  0  0  0  0  0  0  0  0
  -16.6111   45.7495  -21.1149 C   0  0  0  0  0  0  0  0  0  0  0  0
  -17.3804   46.8921  -21.4225 C   0  0  0  0  0  0  0  0  0  0  0  0
  -16.7383   48.0169  -21.8383 C   0  0  0  0  0  0  0  0  0  0  0  0
  -17.5059   49.1019  -22.1203 F   0  0  0  0  0  0  0  0  0  0  0  0
  -15.3498   48.0609  -21.9657 C   0  0  0  0  0  0  0  0  0  0  0  0
  -14.6093   46.9471  -21.6646 C   0  0  0  0  0  0  0  0  0  0  0  0
  -15.2434   45.7843  -21.2375 C   0  0  0  0  0  0  0  0  0  0  0  0
  -14.5039   44.6176  -20.9219 O   0  0  0  0  0  0  0  0  0  0  0  0
  -13.9562   44.6592  -19.6282 C   0  0  0  0  0  0  0  0  0  0  0  0
  -13.2188   43.5654  -19.2105 C   0  0  0  0  0  0  0  0  0  0  0  0
  -12.6339   43.5012  -17.9717 C   0  0  0  0  0  0  0  0  0  0  0  0
  -12.7992   44.5926  -17.1144 C   0  0  0  0  0  0  0  0  0  0  0  0
  -13.5340   45.6858  -17.5212 C   0  0  0  0  0  0  0  0  0  0  0  0
  -13.5201   46.5956  -16.4924 C   0  0  0  0  0  0  0  0  0  0  0  0
  -12.7873   46.0210  -15.5239 N   0  0  0  0  0  0  0  0  0  0  0  0
  -12.3503   44.8307  -15.8757 N   0  0  0  0  0  0  0  0  0  0  0  0
  -11.5185   43.9074  -15.0930 C   0  0  0  0  0  0  0  0  0  0  0  0
  -11.2068   44.6323  -13.8009 C   0  0  0  0  0  0  0  0  0  0  0  0
  -10.0218   45.3742  -13.9777 O   0  0  0  0  0  0  0  0  0  0  0  0
  -14.1137   45.7202  -18.7763 C   0  0  0  0  0  0  0  0  0  0  0  0
  -21.2860   41.6026  -24.7683 C   0  0  0  0  0  0  0  0  0  0  0  0
  -22.3521   42.2250  -25.4255 C   0  0  0  0  0  0  0  0  0  0  0  0
  1  2  1  0
  2  3  2  0
  3  4  1  0
  4  5  2  0
  5  6  1  0
  6  7  1  0
  7  8  2  0
  8  9  1  0
  9 10  1  0
  9 11  1  0
  9 12  1  0
  8 13  1  0
 13 14  2  0
 14 15  1  0
 15 16  1  0
 16 17  2  0
 16 18  1  0
 18 19  1  0
 19 20  1  0
 20 21  2  0
 21 22  1  0
 22 23  1  0
 22 24  2  0
 24 25  1  0
 25 26  2  0
 26 27  1  0
 27 28  1  0
 28 29  2  0
 29 30  1  0
 30 31  2  0
 31 32  1  0
 32 33  1  0
 33 34  2  0
 34 35  1  0
 35 36  1  0
 36 37  1  0
 37 38  1  0
 32 39  2  0
  5 40  1  0
 40 41  2  0
 41  2  1  0
 14  6  1  0
 26 20  1  0
 39 28  1  0
 35 31  1  0
M  END
$$$$
