
     RDKit          3D

 23 26  0  0  0  0  0  0  0  0999 V2000
  -19.4131   42.3184  -18.4249 C   0  0  0  0  0  0  0  0  0  0  0  0
  -20.6848   42.8446  -18.4204 C   0  0  0  0  0  0  0  0  0  0  0  0
  -21.7198   42.3312  -19.1173 N   0  0  0  0  0  0  0  0  0  0  0  0
  -21.4895   41.2193  -19.8745 C   0  0  0  0  0  0  0  0  0  0  0  0
  -20.2499   40.6348  -19.9321 C   0  0  0  0  0  0  0  0  0  0  0  0
  -20.0323   39.4545  -20.7441 C   0  0  0  0  0  0  0  0  0  0  0  0
  -21.0250   38.8143  -21.3608 N   0  0  0  0  0  0  0  0  0  0  0  0
  -20.8476   37.6850  -22.1435 C   0  0  0  0  0  0  0  0  0  0  0  0
  -21.9617   37.0941  -22.7334 N   0  0  0  0  0  0  0  0  0  0  0  0
  -23.2572   37.4268  -23.1389 C   0  0  0  0  0  0  0  0  0  0  0  0
  -24.0696   36.3123  -23.7680 C   0  0  0  0  0  0  0  0  0  0  0  0
  -24.1111   36.3250  -25.2516 C   0  0  0  0  0  0  0  0  0  0  0  0
  -24.9044   37.5362  -25.7012 C   0  0  0  0  0  0  0  0  0  0  0  0
  -24.6228   38.6869  -24.7319 C   0  0  0  0  0  0  0  0  0  0  0  0
  -23.1886   38.4963  -24.2932 C   0  0  0  0  0  0  0  0  0  0  0  0
  -19.5554   37.2657  -22.2373 C   0  0  0  0  0  0  0  0  0  0  0  0
  -19.2141   36.1455  -22.9604 C   0  0  0  0  0  0  0  0  0  0  0  0
  -17.9220   35.7027  -23.0527 C   0  0  0  0  0  0  0  0  0  0  0  0
  -16.8646   36.3488  -22.4247 C   0  0  0  0  0  0  0  0  0  0  0  0
  -17.1852   37.4625  -21.7004 C   0  0  0  0  0  0  0  0  0  0  0  0
  -18.4875   37.9223  -21.5974 C   0  0  0  0  0  0  0  0  0  0  0  0
  -18.7735   39.0005  -20.8703 N   0  0  0  0  0  0  0  0  0  0  0  0
  -19.2222   41.1808  -19.2131 C   0  0  0  0  0  0  0  0  0  0  0  0
  1  2  2  0
  2  3  1  0
  3  4  2  0
  4  5  1  0
  5  6  1  0
  6  7  2  0
  7  8  1  0
  8  9  1  0
  9 10  1  0
 10 11  1  0
 11 12  1  0
 12 13  1  0
 13 14  1  0
 14 15  1  0
  8 16  2  0
 16 17  1  0
 17 18  2  0
 18 19  1  0
 19 20  2  0
 20 21  1  0
 21 22  2  0
  5 23  2  0
 23  1  1  0
 22  6  1  0
 15 10  1  0
 21 16  1  0
M  END
$$$$
