
     RDKit          3D

 19 20  0  0  0  0  0  0  0  0999 V2000
    4.8571    9.4869  -35.4486 C   0  0  0  0  0  0  0  0  0  0  0  0
    3.6976    9.6170  -36.3888 C   0  0  0  0  0  0  0  0  0  0  0  0
    2.8257   10.6822  -36.3446 C   0  0  0  0  0  0  0  0  0  0  0  0
    1.7625   10.7872  -37.2180 C   0  0  0  0  0  0  0  0  0  0  0  0
    1.5313    9.8243  -38.1739 C   0  0  0  0  0  0  0  0  0  0  0  0
    0.2319    9.8612  -39.3039 S   0  0  0  0  0  6  0  0  0  0  0  0
    0.8074    9.3603  -40.6324 O   0  0  0  0  0  0  0  0  0  0  0  0
   -0.2326   11.2736  -39.5452 O   0  0  0  0  0  0  0  0  0  0  0  0
   -1.1341    8.8868  -38.9163 C   0  0  0  0  0  0  0  0  0  0  0  0
   -1.2475    7.6318  -39.4835 C   0  0  0  0  0  0  0  0  0  0  0  0
   -0.2426    7.0824  -40.4573 C   0  0  0  0  0  0  0  0  0  0  0  0
   -2.3410    6.8298  -39.1658 C   0  0  0  0  0  0  0  0  0  0  0  0
   -3.3320    7.2282  -38.3022 C   0  0  0  0  0  0  0  0  0  0  0  0
   -4.4696    6.3084  -38.0154 C   0  0  0  0  0  0  0  0  0  0  0  0
   -3.2252    8.4587  -37.7437 C   0  0  0  0  0  0  0  0  0  0  0  0
   -2.1424    9.2782  -38.0450 C   0  0  0  0  0  0  0  0  0  0  0  0
   -2.0842   10.5977  -37.4028 C   0  0  0  0  0  0  0  0  0  0  0  0
    2.4107    8.7604  -38.2095 C   0  0  0  0  0  0  0  0  0  0  0  0
    3.4764    8.6464  -37.3409 C   0  0  0  0  0  0  0  0  0  0  0  0
  1  2  1  0
  2  3  2  0
  3  4  1  0
  4  5  2  0
  5  6  1  0
  6  7  2  0
  6  8  2  0
  6  9  1  0
  9 10  2  0
 10 11  1  0
 10 12  1  0
 12 13  2  0
 13 14  1  0
 13 15  1  0
 15 16  2  0
 16 17  1  0
  5 18  1  0
 18 19  2  0
 19  2  1  0
 16  9  1  0
M  END
$$$$
