
     RDKit          3D

 10  9  0  0  0  0  0  0  0  0999 V2000
  -19.7797   38.7569  -21.6004 O   0  0  0  0  0  0  0  0  0  0  0  0
  -19.5764   38.1192  -22.6644 C   0  0  0  0  0  0  0  0  0  0  0  0
  -19.1042   38.7953  -23.7593 O   0  0  0  0  0  0  0  0  0  0  0  0
  -19.8539   36.6590  -22.6986 C   0  0  2  0  0  0  0  0  0  0  0  0
  -20.9632   36.1896  -21.3629 S   0  0  0  0  0  0  0  0  0  0  0  0
  -18.5416   35.9440  -22.6594 C   0  0  2  0  0  0  0  0  0  0  0  0
  -18.7310   34.1425  -22.6790 S   0  0  0  0  0  0  0  0  0  0  0  0
  -17.6918   36.3613  -21.5234 C   0  0  0  0  0  0  0  0  0  0  0  0
  -16.7051   37.1121  -21.7098 O   0  0  0  0  0  0  0  0  0  0  0  0
  -17.9593   35.9379  -20.2308 O   0  0  0  0  0  0  0  0  0  0  0  0
  1  2  2  0
  2  3  1  0
  2  4  1  0
  4  5  1  1
  4  6  1  0
  6  7  1  1
  6  8  1  0
  8  9  2  0
  8 10  1  0
M  END
$$$$
