
     RDKit          3D

 50 54  0  0  0  0  0  0  0  0999 V2000
  -18.7583   55.0416  -30.6828 C   0  0  0  0  0  0  0  0  0  0  0  0
  -17.9536   53.9038  -30.0786 C   0  0  0  0  0  0  0  0  0  0  0  0
  -18.4849   52.5702  -30.5231 C   0  0  0  0  0  0  0  0  0  0  0  0
  -17.7219   51.3928  -30.0193 C   0  0  0  0  0  0  0  0  0  0  0  0
  -18.2391   50.4001  -29.3836 O   0  0  0  0  0  0  0  0  0  0  0  0
  -17.8946   49.2604  -28.8878 C   0  0  0  0  0  0  0  0  0  0  0  0
  -18.6342   48.7596  -27.6868 C   0  0  0  0  0  0  0  0  0  0  0  0
  -18.3816   47.4462  -27.3515 O   0  0  0  0  0  0  0  0  0  0  0  0
  -17.8767   47.0110  -26.1382 C   0  0  0  0  0  0  0  0  0  0  0  0
  -18.7040   46.8676  -25.0508 C   0  0  0  0  0  0  0  0  0  0  0  0
  -18.1694   46.4299  -23.8395 C   0  0  0  0  0  0  0  0  0  0  0  0
  -16.8283   46.1413  -23.7222 C   0  0  0  0  0  0  0  0  0  0  0  0
  -16.3257   45.7206  -22.4204 C   0  0  0  0  0  0  0  0  0  0  0  0
  -15.4081   46.4643  -21.7213 C   0  0  0  0  0  0  0  0  0  0  0  0
  -14.9020   46.0696  -20.4713 C   0  0  0  0  0  0  0  0  0  0  0  0
  -15.3202   44.9025  -19.8986 C   0  0  0  0  0  0  0  0  0  0  0  0
  -16.2436   44.1450  -20.5928 C   0  0  0  0  0  0  0  0  0  0  0  0
  -16.7327   44.5449  -21.8208 C   0  0  0  0  0  0  0  0  0  0  0  0
  -16.9042   42.8658  -20.3473 C   0  0  0  0  0  0  0  0  0  0  0  0
  -16.9267   41.9763  -19.3584 C   0  0  0  0  0  0  0  0  0  0  0  0
  -17.7738   40.8600  -19.6502 C   0  0  0  0  0  0  0  0  0  0  0  0
  -17.9679   39.9315  -18.7843 O   0  0  0  0  0  0  0  0  0  0  0  0
  -18.4341   40.7272  -20.8953 N   0  0  0  0  0  0  0  0  0  0  0  0
  -19.2638   39.5609  -21.1118 C   0  0  0  0  0  0  0  0  0  0  0  0
  -19.2057   38.9017  -22.3289 C   0  0  0  0  0  0  0  0  0  0  0  0
  -20.0112   37.7764  -22.5506 C   0  0  0  0  0  0  0  0  0  0  0  0
  -20.8608   37.3217  -21.5632 C   0  0  0  0  0  0  0  0  0  0  0  0
  -21.8942   35.8860  -21.8666 S   0  0  0  0  0  4  0  0  0  0  0  0
  -22.1521   35.9727  -23.3840 O   0  0  0  0  0  0  0  0  0  0  0  0
  -20.6437   34.5214  -21.7959 C   0  0  0  0  0  0  0  0  0  0  0  0
  -19.7146   34.6129  -22.9241 C   0  0  0  0  0  0  0  0  0  0  0  0
  -19.3117   35.8178  -23.4897 C   0  0  0  0  0  0  0  0  0  0  0  0
  -18.4804   35.4934  -24.4928 N   0  0  0  0  0  0  0  0  0  0  0  0
  -18.3600   34.1694  -24.5620 C   0  0  0  0  0  0  0  0  0  0  0  0
  -19.1257   33.5929  -23.5863 N   0  0  0  0  0  0  0  0  0  0  0  0
  -19.1960   32.1697  -23.3819 C   0  0  0  0  0  0  0  0  0  0  0  0
  -18.2532   31.6823  -22.3129 C   0  0  0  0  0  0  0  0  0  0  0  0
  -18.3511   30.2051  -22.0492 C   0  0  0  0  0  0  0  0  0  0  0  0
  -20.8828   38.0063  -20.3757 C   0  0  0  0  0  0  0  0  0  0  0  0
  -20.1081   39.1132  -20.1226 C   0  0  0  0  0  0  0  0  0  0  0  0
  -16.2638   41.9747  -18.0529 C   0  0  0  0  0  0  0  0  0  0  0  0
  -16.2544   43.4227  -17.4896 C   0  0  0  0  0  0  0  0  0  0  0  0
  -14.8815   43.9709  -17.5021 C   0  0  0  0  0  0  0  0  0  0  0  0
  -14.5932   44.8275  -18.6697 N   0  0  0  0  0  0  0  0  0  0  0  0
  -13.4470   45.6249  -18.6068 C   0  0  0  0  0  0  0  0  0  0  0  0
  -13.3973   46.9048  -17.8765 C   0  0  0  0  0  0  0  0  0  0  0  0
  -14.2225   47.0376  -16.6192 C   0  0  0  0  0  0  0  0  0  0  0  0
  -12.0462   47.5195  -17.6063 C   0  0  0  0  0  0  0  0  0  0  0  0
  -16.0023   46.2823  -24.8042 C   0  0  0  0  0  0  0  0  0  0  0  0
  -16.5441   46.7167  -25.9973 C   0  0  0  0  0  0  0  0  0  0  0  0
  1  2  1  0
  2  3  1  0
  3  4  1  0
  4  5  1  0
  5  6  1  0
  6  7  1  0
  7  8  1  0
  8  9  1  0
  9 10  2  0
 10 11  1  0
 11 12  2  0
 12 13  1  0
 13 14  2  0
 14 15  1  0
 15 16  2  0
 16 17  1  0
 17 18  2  0
 17 19  1  0
 19 20  2  0
 20 21  1  0
 21 22  2  0
 21 23  1  0
 23 24  1  0
 24 25  2  0
 25 26  1  0
 26 27  2  0
 27 28  1  0
 28 29  2  0
 28 30  1  6
 30 31  1  0
 31 32  2  0
 32 33  1  0
 33 34  2  0
 34 35  1  0
 35 36  1  0
 36 37  1  0
 37 38  1  0
 27 39  1  0
 39 40  2  0
 20 41  1  0
 41 42  1  0
 42 43  1  0
 43 44  1  0
 44 45  1  0
 45 46  1  0
 46 47  1  0
 46 48  1  0
 12 49  1  0
 49 50  2  0
 50  9  1  0
 18 13  1  0
 40 24  1  0
 44 16  1  0
 35 31  1  0
M  END
$$$$
