
     RDKit          3D

 20 22  0  0  0  0  0  0  0  0999 V2000
    2.8395    9.4827  -36.1845 O   0  0  0  0  0  0  0  0  0  0  0  0
    2.1084   10.0272  -37.0356 N   0  0  0  0  0  4  0  0  0  0  0  0
    1.9120   11.3818  -36.9319 O   0  0  0  0  0  1  0  0  0  0  0  0
    1.5136    9.2444  -38.0646 C   0  0  0  0  0  0  0  0  0  0  0  0
    1.6730    7.8616  -38.0825 C   0  0  0  0  0  0  0  0  0  0  0  0
    1.1026    7.0852  -39.0746 C   0  0  0  0  0  0  0  0  0  0  0  0
    0.3525    7.6947  -40.0786 C   0  0  0  0  0  0  0  0  0  0  0  0
   -0.3578    6.6522  -41.3285 S   0  0  0  0  0  0  0  0  0  0  0  0
   -2.1366    6.5280  -41.0649 C   0  0  0  0  0  0  0  0  0  0  0  0
   -2.6763    6.7682  -39.8179 C   0  0  0  0  0  0  0  0  0  0  0  0
   -4.0502    6.6680  -39.6258 C   0  0  0  0  0  0  0  0  0  0  0  0
   -4.8919    6.3303  -40.6656 C   0  0  0  0  0  0  0  0  0  0  0  0
   -4.3106    6.0986  -41.8953 C   0  0  0  0  0  0  0  0  0  0  0  0
   -2.9699    6.2011  -42.0636 N   0  0  0  0  0  4  0  0  0  0  0  0
   -2.3807    5.9677  -43.3031 O   0  0  0  0  0  1  0  0  0  0  0  0
    0.1967    9.0586  -40.0589 C   0  0  0  0  0  0  0  0  0  0  0  0
   -0.4496    9.9112  -40.8637 N   0  0  0  0  0  0  0  0  0  0  0  0
   -0.2888   11.1173  -40.4026 O   0  0  0  0  0  0  0  0  0  0  0  0
    0.4395   11.1042  -39.3207 N   0  0  0  0  0  0  0  0  0  0  0  0
    0.7644    9.8313  -39.0715 C   0  0  0  0  0  0  0  0  0  0  0  0
  1  2  2  0
  2  3  1  0
  2  4  1  0
  4  5  2  0
  5  6  1  0
  6  7  2  0
  7  8  1  0
  8  9  1  0
  9 10  2  0
 10 11  1  0
 11 12  2  0
 12 13  1  0
 13 14  2  0
 14 15  1  0
  7 16  1  0
 16 17  2  0
 17 18  1  0
 18 19  1  0
 19 20  2  0
 20  4  1  0
 14  9  1  0
 20 16  1  0
M  CHG  4   2   1   3  -1  14   1  15  -1
M  END
$$$$
