
     RDKit          3D

 14 16  0  0  0  0  0  0  0  0999 V2000
  -23.5643   27.2809  -33.7793 C   0  0  0  0  0  0  0  0  0  0  0  0
  -22.6941   26.8815  -34.7939 C   0  0  0  0  0  0  0  0  0  0  0  0
  -23.2127   26.1738  -35.8511 C   0  0  0  0  0  0  0  0  0  0  0  0
  -24.5594   25.8851  -35.8741 C   0  0  0  0  0  0  0  0  0  0  0  0
  -25.3187   25.2132  -36.7817 N   0  0  0  0  0  0  0  0  0  0  0  0
  -26.5839   25.1854  -36.3755 C   0  0  0  0  0  0  0  0  0  0  0  0
  -27.7322   24.5496  -37.0799 C   0  0  0  0  0  0  0  0  0  0  0  0
  -27.5413   23.5262  -38.0363 C   0  0  0  0  0  0  0  0  0  0  0  0
  -29.2258   23.1449  -38.5452 S   0  0  0  0  0  0  0  0  0  0  0  0
  -29.9269   24.4446  -37.3706 C   0  0  0  0  0  0  0  0  0  0  0  0
  -29.0080   24.8475  -36.9076 N   0  0  0  0  0  0  0  0  0  0  0  0
  -26.6361   25.8324  -35.2200 N   0  0  0  0  0  0  0  0  0  0  0  0
  -25.4163   26.2857  -34.8620 C   0  0  0  0  0  0  0  0  0  0  0  0
  -24.9093   26.9957  -33.7967 C   0  0  0  0  0  0  0  0  0  0  0  0
  1  2  2  0
  2  3  1  0
  3  4  2  0
  4  5  1  0
  5  6  1  0
  6  7  1  0
  7  8  2  0
  8  9  1  0
  9 10  1  0
 10 11  2  0
  6 12  2  0
 12 13  1  0
 13 14  2  0
 14  1  1  0
 13  4  1  0
 11  7  1  0
M  END
$$$$
