
     RDKit          3D

 31 33  0  0  0  0  0  0  0  0999 V2000
  -13.6673   46.9239  -20.1488 N   0  0  0  0  0  0  0  0  0  0  0  0
  -13.8427   45.7468  -20.1589 C   0  0  0  0  0  0  0  0  0  0  0  0
  -14.0591   44.3375  -20.1469 C   0  0  0  0  0  0  0  0  0  0  0  0
  -15.2094   43.7877  -20.5148 C   0  0  0  0  0  0  0  0  0  0  0  0
  -16.1262   44.4832  -21.3878 C   0  0  0  0  0  0  0  0  0  0  0  0
  -16.0329   45.8430  -21.6967 C   0  0  0  0  0  0  0  0  0  0  0  0
  -17.0477   46.1558  -22.5721 C   0  0  0  0  0  0  0  0  0  0  0  0
  -17.7455   45.0115  -22.7920 C   0  0  0  0  0  0  0  0  0  0  0  0
  -17.1776   44.0037  -22.0674 N   0  0  0  0  0  0  0  0  0  0  0  0
  -17.7863   42.3858  -22.0556 S   0  0  0  0  0  6  0  0  0  0  0  0
  -18.6285   42.1855  -23.2713 O   0  0  0  0  0  0  0  0  0  0  0  0
  -16.6189   41.4303  -22.0811 O   0  0  0  0  0  0  0  0  0  0  0  0
  -18.6949   42.0889  -20.5929 C   0  0  0  0  0  0  0  0  0  0  0  0
  -19.9792   42.6383  -20.4455 C   0  0  0  0  0  0  0  0  0  0  0  0
  -20.7497   42.4208  -19.3364 C   0  0  0  0  0  0  0  0  0  0  0  0
  -20.2463   41.6357  -18.3316 C   0  0  0  0  0  0  0  0  0  0  0  0
  -18.9757   41.0555  -18.4094 C   0  0  0  0  0  0  0  0  0  0  0  0
  -18.4883   40.2476  -17.3550 N   0  0  0  0  0  4  0  0  0  0  0  0
  -19.0792   40.2209  -16.2653 O   0  0  0  0  0  0  0  0  0  0  0  0
  -17.3682   39.4871  -17.5106 O   0  0  0  0  0  1  0  0  0  0  0  0
  -18.2543   41.3134  -19.5490 C   0  0  0  0  0  0  0  0  0  0  0  0
  -12.7149   43.3370  -19.6057 S   0  0  0  0  0  6  0  0  0  0  0  0
  -11.4071   44.0448  -19.8019 O   0  0  0  0  0  0  0  0  0  0  0  0
  -12.7284   42.0831  -20.4136 O   0  0  0  0  0  0  0  0  0  0  0  0
  -12.9982   42.9458  -17.9339 C   0  0  0  0  0  0  0  0  0  0  0  0
  -14.2051   42.3686  -17.5277 C   0  0  0  0  0  0  0  0  0  0  0  0
  -14.4368   42.0579  -16.2048 C   0  0  0  0  0  0  0  0  0  0  0  0
  -13.5093   42.2951  -15.2343 C   0  0  0  0  0  0  0  0  0  0  0  0
  -13.7415   41.9865  -13.9249 F   0  0  0  0  0  0  0  0  0  0  0  0
  -12.3113   42.8667  -15.6306 C   0  0  0  0  0  0  0  0  0  0  0  0
  -12.0563   43.1878  -16.9564 C   0  0  0  0  0  0  0  0  0  0  0  0
  1  2  3  0
  2  3  1  0
  3  4  2  3
  4  5  1  0
  5  6  2  0
  6  7  1  0
  7  8  2  0
  8  9  1  0
  9 10  1  0
 10 11  2  0
 10 12  2  0
 10 13  1  0
 13 14  2  0
 14 15  1  0
 15 16  2  0
 16 17  1  0
 17 18  1  0
 18 19  2  0
 18 20  1  0
 17 21  2  0
  3 22  1  0
 22 23  2  0
 22 24  2  0
 22 25  1  0
 25 26  2  0
 26 27  1  0
 27 28  2  0
 28 29  1  0
 28 30  1  0
 30 31  2  0
  9  5  1  0
 21 13  1  0
 31 25  1  0
M  CHG  2  18   1  20  -1
M  END
$$$$
