
     RDKit          3D

 35 38  0  0  0  0  0  0  0  0999 V2000
  -16.1178   16.5606  -32.2112 C   0  0  0  0  0  0  0  0  0  0  0  0
  -17.4622   16.9097  -32.3936 O   0  0  0  0  0  0  0  0  0  0  0  0
  -17.8583   17.5417  -33.5662 C   0  0  0  0  0  0  0  0  0  0  0  0
  -17.0224   17.5301  -34.6746 C   0  0  0  0  0  0  0  0  0  0  0  0
  -17.3641   18.1357  -35.8468 C   0  0  0  0  0  0  0  0  0  0  0  0
  -16.6493   18.1974  -36.9885 O   0  0  0  0  0  0  0  0  0  0  0  0
  -16.2099   17.3318  -37.9352 C   0  0  0  0  0  0  0  0  0  0  0  0
  -15.4826   17.9799  -39.0481 C   0  0  0  0  0  0  0  0  0  0  0  0
  -16.1397   18.8892  -39.8386 C   0  0  0  0  0  0  0  0  0  0  0  0
  -15.4773   19.5431  -40.8817 C   0  0  0  0  0  0  0  0  0  0  0  0
  -14.1550   19.2625  -41.1057 C   0  0  0  0  0  0  0  0  0  0  0  0
  -13.4727   18.3389  -40.3090 C   0  0  0  0  0  0  0  0  0  0  0  0
  -12.0691   18.0493  -40.5460 C   0  0  0  0  0  0  0  0  0  0  0  0
  -11.0394   18.4236  -39.7113 C   0  0  0  0  0  0  0  0  0  0  0  0
   -9.7254   18.1147  -39.9926 C   0  0  0  0  0  0  0  0  0  0  0  0
   -9.3796   17.4143  -41.1268 C   0  0  0  0  0  0  0  0  0  0  0  0
  -10.3880   17.0251  -41.9836 C   0  0  0  0  0  0  0  0  0  0  0  0
  -11.6975   17.3388  -41.6932 C   0  0  0  0  0  0  0  0  0  0  0  0
  -14.1301   17.7041  -39.2910 C   0  0  0  0  0  0  0  0  0  0  0  0
  -13.4385   16.7173  -38.4405 C   0  0  0  0  0  0  0  0  0  0  0  0
  -18.6230   18.7735  -35.8550 C   0  0  0  0  0  0  0  0  0  0  0  0
  -19.4569   18.7901  -34.7630 C   0  0  0  0  0  0  0  0  0  0  0  0
  -20.6931   19.4196  -34.7740 O   0  0  0  0  0  0  0  0  0  0  0  0
  -21.4698   19.5416  -35.9464 C   0  0  0  0  0  0  0  0  0  0  0  0
  -19.0838   18.1710  -33.5990 C   0  0  0  0  0  0  0  0  0  0  0  0
  -19.9792   18.1949  -32.4203 C   0  0  0  0  0  0  0  0  0  0  0  0
  -21.0123   17.2497  -32.5667 N   0  0  0  0  0  0  0  0  0  0  0  0
  -22.3359   17.6536  -32.7245 C   0  0  0  0  0  0  0  0  0  0  0  0
  -23.3883   16.7752  -32.1047 C   0  0  0  0  0  0  0  0  0  0  0  0
  -22.9440   15.4184  -31.6998 C   0  0  0  0  0  0  0  0  0  0  0  0
  -21.4942   15.3223  -31.2819 C   0  0  0  0  0  0  0  0  0  0  0  0
  -20.7011   15.8772  -32.4571 C   0  0  1  0  0  0  0  0  0  0  0  0
  -21.0703   15.1690  -33.7044 C   0  0  0  0  0  0  0  0  0  0  0  0
  -20.4623   15.3754  -34.7810 O   0  0  0  0  0  0  0  0  0  0  0  0
  -22.1060   14.2585  -33.6951 O   0  0  0  0  0  0  0  0  0  0  0  0
  1  2  1  0
  2  3  1  0
  3  4  2  0
  4  5  1  0
  5  6  1  0
  6  7  1  0
  7  8  1  0
  8  9  2  0
  9 10  1  0
 10 11  2  0
 11 12  1  0
 12 13  1  0
 13 14  2  0
 14 15  1  0
 15 16  2  0
 16 17  1  0
 17 18  2  0
 12 19  2  0
 19 20  1  0
  5 21  2  0
 21 22  1  0
 22 23  1  0
 23 24  1  0
 22 25  2  0
 25 26  1  0
 26 27  1  0
 27 28  1  0
 28 29  1  0
 29 30  1  0
 30 31  1  0
 31 32  1  0
 32 33  1  6
 33 34  2  0
 33 35  1  0
 25  3  1  0
 32 27  1  0
 19  8  1  0
 18 13  1  0
M  END
$$$$
