
     RDKit          3D

 34 36  0  0  0  0  0  0  0  0999 V2000
  -18.3195   21.9369  -41.1744 C   0  0  0  0  0  0  0  0  0  0  0  0
  -18.8621   21.0749  -42.2499 C   0  0  0  0  0  0  0  0  0  0  0  0
  -20.0050   21.4500  -42.9664 C   0  0  0  0  0  0  0  0  0  0  0  0
  -20.4970   20.6468  -43.9565 C   0  0  0  0  0  0  0  0  0  0  0  0
  -19.8486   19.4633  -44.2362 C   0  0  0  0  0  0  0  0  0  0  0  0
  -18.7071   19.0937  -43.5169 C   0  0  0  0  0  0  0  0  0  0  0  0
  -18.2086   19.8974  -42.5208 C   0  0  0  0  0  0  0  0  0  0  0  0
  -17.0790   19.5367  -41.8055 O   0  0  0  0  0  0  0  0  0  0  0  0
  -16.4366   18.3296  -42.1067 C   0  0  0  0  0  0  0  0  0  0  0  0
  -15.2399   18.1061  -41.2371 C   0  0  0  0  0  0  0  0  0  0  0  0
  -15.1870   17.4826  -40.0478 N   0  0  0  0  0  0  0  0  0  0  0  0
  -16.3232   16.9038  -39.3901 C   0  0  0  0  0  0  0  0  0  0  0  0
  -17.0235   17.8375  -38.5001 C   0  0  0  0  0  0  0  0  0  0  0  0
  -16.6219   19.0200  -38.3660 O   0  0  0  0  0  0  0  0  0  0  0  0
  -18.1252   17.4251  -37.8058 O   0  0  0  0  0  0  0  0  0  0  0  0
  -18.8807   18.2302  -36.9208 C   0  0  0  0  0  0  0  0  0  0  0  0
  -20.3492   18.2656  -37.3696 C   0  0  0  0  0  0  0  0  0  0  0  0
  -21.1529   19.0496  -36.3837 C   0  0  0  0  0  0  0  0  0  0  0  0
  -22.5864   19.1125  -36.8762 C   0  0  0  0  0  0  0  0  0  0  0  0
  -21.1813   18.3072  -35.0566 C   0  0  0  0  0  0  0  0  0  0  0  0
  -19.7384   18.2675  -34.5686 C   0  0  0  0  0  0  0  0  0  0  0  0
  -18.8904   17.5274  -35.5828 C   0  0  0  0  0  0  0  0  0  0  0  0
  -17.5341   17.2619  -35.0200 C   0  0  0  0  0  0  0  0  0  0  0  0
  -17.6518   16.5521  -33.6825 C   0  0  0  0  0  0  0  0  0  0  0  0
  -16.8758   18.6118  -34.7258 C   0  0  0  0  0  0  0  0  0  0  0  0
  -13.8976   17.5061  -39.6064 C   0  0  0  0  0  0  0  0  0  0  0  0
  -13.3044   17.0200  -38.4714 C   0  0  0  0  0  0  0  0  0  0  0  0
  -11.9441   17.2142  -38.3232 C   0  0  0  0  0  0  0  0  0  0  0  0
  -11.2124   17.8738  -39.2846 C   0  0  0  0  0  0  0  0  0  0  0  0
  -11.8210   18.3502  -40.4074 C   0  0  0  0  0  0  0  0  0  0  0  0
  -13.1925   18.1698  -40.5857 C   0  0  0  0  0  0  0  0  0  0  0  0
  -14.0205   18.5343  -41.5809 N   0  0  0  0  0  4  0  0  0  0  0  0
  -13.6308   19.2620  -42.7987 C   0  0  0  0  0  0  0  0  0  0  0  0
  -17.4879   18.5937  -38.8267 Cl  0  0  0  0  0 15  0  0  0  0  0  0
  1  2  1  0
  2  3  2  0
  3  4  1  0
  4  5  2  0
  5  6  1  0
  6  7  2  0
  7  8  1  0
  8  9  1  0
  9 10  1  0
 10 11  1  0
 11 12  1  0
 12 13  1  0
 13 14  2  0
 13 15  1  0
 15 16  1  0
 16 17  1  0
 17 18  1  0
 18 19  1  0
 18 20  1  0
 20 21  1  0
 21 22  1  0
 22 23  1  0
 23 24  1  0
 23 25  1  0
 11 26  1  0
 26 27  2  0
 27 28  1  0
 28 29  2  0
 29 30  1  0
 30 31  2  0
 31 32  1  0
 32 33  1  0
  7  2  1  0
 32 10  2  0
 22 16  1  0
 31 26  1  0
M  CHG  2  32   1  34  -1
M  END
$$$$
