
     RDKit          3D

 28 31  0  0  0  0  0  0  0  0999 V2000
  -17.3163   37.4430  -22.2800 C   0  0  0  0  0  0  0  0  0  0  0  0
  -18.4404   38.3648  -21.8894 C   0  0  0  0  0  0  0  0  0  0  0  0
  -19.0813   38.0347  -20.8885 O   0  0  0  0  0  0  0  0  0  0  0  0
  -18.7670   39.4763  -22.5431 O   0  0  0  0  0  0  0  0  0  0  0  0
  -19.5152   40.5644  -22.1894 C   0  0  2  0  0  0  0  0  0  0  0  0
  -20.6665   39.9432  -21.3813 C   0  0  0  0  0  0  0  0  0  0  0  0
  -22.0569   40.0202  -21.8829 C   0  0  0  0  0  0  0  0  0  0  0  0
  -20.4464   39.3921  -20.3398 O   0  0  0  0  0  0  0  0  0  0  0  0
  -20.0727   41.4548  -23.2075 C   0  0  0  0  0  0  0  0  0  0  0  0
  -19.6245   42.8864  -22.8873 C   0  0  0  0  0  0  0  0  0  0  0  0
  -18.4487   42.6774  -22.0217 C   0  0  1  0  0  0  0  0  0  0  0  0
  -18.1037   43.8289  -21.0829 C   0  0  2  0  0  0  0  0  0  0  0  0
  -17.6080   44.9494  -21.9275 C   0  0  0  0  0  0  0  0  0  0  0  0
  -16.6705   45.7769  -21.4853 C   0  0  0  0  0  0  0  0  0  0  0  0
  -16.1726   46.9068  -22.3405 C   0  0  0  0  0  0  0  0  0  0  0  0
  -16.1088   45.5963  -20.1526 C   0  0  0  0  0  0  0  0  0  0  0  0
  -15.2514   46.4894  -19.6872 C   0  0  0  0  0  0  0  0  0  0  0  0
  -14.6887   46.3226  -18.3710 C   0  0  0  0  0  0  0  0  0  0  0  0
  -14.0271   47.2736  -17.8879 O   0  0  0  0  0  0  0  0  0  0  0  0
  -14.8779   45.0683  -17.5980 C   0  0  0  0  0  0  0  0  0  0  0  0
  -15.3889   43.9478  -18.4427 C   0  0  0  0  0  0  0  0  0  0  0  0
  -16.5167   44.4037  -19.3441 C   0  0  1  0  0  0  0  0  0  0  0  0
  -17.6570   44.8410  -18.4538 C   0  0  0  0  0  0  0  0  0  0  0  0
  -16.9000   43.3281  -20.3016 C   0  0  1  0  0  0  0  0  0  0  0  0
  -17.0423   42.0030  -19.6684 C   0  0  0  0  0  0  0  0  0  0  0  0
  -17.6286   40.9529  -20.5674 C   0  0  0  0  0  0  0  0  0  0  0  0
  -18.8604   41.4895  -21.1982 C   0  0  2  0  0  0  0  0  0  0  0  0
  -19.7945   41.8976  -20.0773 C   0  0  0  0  0  0  0  0  0  0  0  0
  1  2  1  0
  2  3  2  0
  2  4  1  0
  5  4  1  6
  5  6  1  0
  6  7  1  0
  6  8  2  0
  5  9  1  0
  9 10  1  0
 11 10  1  6
 11 12  1  0
 12 13  1  6
 13 14  2  0
 14 15  1  0
 14 16  1  0
 16 17  2  0
 17 18  1  0
 18 19  2  0
 18 20  1  0
 20 21  1  0
 21 22  1  0
 22 23  1  1
 22 24  1  0
 24 25  1  1
 25 26  1  0
 26 27  1  0
 27 28  1  1
 27  5  1  0
 27 11  1  0
 24 12  1  0
 22 16  1  0
M  END
$$$$
