
     RDKit          3D

 12 12  0  0  0  0  0  0  0  0999 V2000
  -29.6627   14.3879  -21.4980 C   0  0  0  0  0  0  0  0  0  0  0  0
  -30.5062   14.2479  -20.2647 C   0  0  0  0  0  0  0  0  0  0  0  0
  -31.4466   13.0805  -20.4161 C   0  0  0  0  0  0  0  0  0  0  0  0
  -30.7580   11.9944  -21.1456 C   0  0  0  0  0  0  0  0  0  0  0  0
  -31.0683   11.6199  -22.4628 N   0  0  0  0  0  0  0  0  0  0  0  0
  -29.8483   11.3742  -20.5572 O   0  0  0  0  0  0  0  0  0  0  0  0
  -32.0490   12.6647  -19.1981 N   0  0  0  0  0  0  0  0  0  0  0  0
  -31.6006   13.0420  -17.8700 C   0  0  0  0  0  0  0  0  0  0  0  0
  -32.8669   12.8457  -17.0536 C   0  0  0  0  0  0  0  0  0  0  0  0
  -33.4248   11.5652  -17.6693 C   0  0  0  0  0  0  0  0  0  0  0  0
  -33.1814   11.8161  -19.1074 C   0  0  0  0  0  0  0  0  0  0  0  0
  -33.8259   11.3819  -20.0617 O   0  0  0  0  0  0  0  0  0  0  0  0
  1  2  1  0
  2  3  1  0
  3  4  1  0
  4  5  1  0
  4  6  2  0
  3  7  1  0
  7  8  1  0
  8  9  1  0
  9 10  1  0
 10 11  1  0
 11 12  2  0
 11  7  1  0
M  END
$$$$
