
     RDKit          3D

 34 38  0  0  0  0  0  0  0  0999 V2000
  -18.1512   47.8710  -22.6039 C   0  0  0  0  0  0  0  0  0  0  0  0
  -18.2430   46.4941  -22.0646 N   0  0  0  0  0  0  0  0  0  0  0  0
  -19.3067   45.7115  -22.4853 C   0  0  0  0  0  0  0  0  0  0  0  0
  -20.1605   46.3116  -23.2715 O   0  0  0  0  0  0  0  0  0  0  0  0
  -19.5515   44.3473  -22.1452 C   0  0  0  0  0  0  0  0  0  0  0  0
  -20.6168   43.7069  -22.7659 N   0  0  0  0  0  0  0  0  0  0  0  0
  -20.7194   42.4823  -22.4054 N   0  0  0  0  0  0  0  0  0  0  0  0
  -21.7141   41.5267  -22.8545 C   0  0  0  0  0  0  0  0  0  0  0  0
  -19.7342   42.2461  -21.5334 C   0  0  0  0  0  0  0  0  0  0  0  0
  -18.9831   43.3890  -21.3437 C   0  0  0  0  0  0  0  0  0  0  0  0
  -17.8375   43.4490  -20.4231 C   0  0  0  0  0  0  0  0  0  0  0  0
  -16.6587   44.0374  -21.1601 C   0  0  0  0  0  0  0  0  0  0  0  0
  -18.1473   44.3538  -19.2166 C   0  0  0  0  0  0  0  0  0  0  0  0
  -17.3853   42.1430  -19.8541 C   0  0  0  0  0  0  0  0  0  0  0  0
  -18.2803   41.0030  -20.0628 C   0  0  0  0  0  0  0  0  0  0  0  0
  -17.9853   39.8109  -19.4204 C   0  0  0  0  0  0  0  0  0  0  0  0
  -18.7495   38.7151  -19.5908 N   0  0  0  0  0  0  0  0  0  0  0  0
  -19.8427   38.7248  -20.3968 C   0  0  0  0  0  0  0  0  0  0  0  0
  -20.6407   37.5485  -20.5612 N   0  0  0  0  0  0  0  0  0  0  0  0
  -21.3733   37.3124  -21.7646 C   0  0  0  0  0  0  0  0  0  0  0  0
  -21.9016   38.3359  -22.5149 C   0  0  0  0  0  0  0  0  0  0  0  0
  -22.6046   38.1154  -23.6797 C   0  0  0  0  0  0  0  0  0  0  0  0
  -22.8189   36.8225  -24.1626 C   0  0  0  0  0  0  0  0  0  0  0  0
  -23.5297   36.5345  -25.3348 N   0  0  0  0  0  0  0  0  0  0  0  0
  -24.6856   37.3065  -25.6919 C   0  0  0  0  0  0  0  0  0  0  0  0
  -25.5596   36.3681  -26.5384 C   0  0  0  0  0  0  0  0  0  0  0  0
  -24.9114   36.0033  -27.7731 N   0  0  0  0  0  0  0  0  0  0  0  0
  -25.2289   36.8934  -28.8631 C   0  0  0  0  0  0  0  0  0  0  0  0
  -23.4969   35.7619  -27.6402 C   0  0  0  0  0  0  0  0  0  0  0  0
  -23.1128   35.4687  -26.2020 C   0  0  0  0  0  0  0  0  0  0  0  0
  -22.2815   35.8122  -23.3954 C   0  0  0  0  0  0  0  0  0  0  0  0
  -21.5771   36.0175  -22.2305 C   0  0  0  0  0  0  0  0  0  0  0  0
  -20.1249   39.8775  -21.0151 N   0  0  0  0  0  0  0  0  0  0  0  0
  -19.3827   41.0176  -20.8768 C   0  0  0  0  0  0  0  0  0  0  0  0
  1  2  1  0
  2  3  1  0
  3  4  2  0
  3  5  1  0
  5  6  2  0
  6  7  1  0
  7  8  1  0
  7  9  1  0
  9 10  2  0
 10 11  1  0
 11 12  1  0
 11 13  1  0
 11 14  1  0
 14 15  1  0
 15 16  2  0
 16 17  1  0
 17 18  2  0
 18 19  1  0
 19 20  1  0
 20 21  2  0
 21 22  1  0
 22 23  2  0
 23 24  1  0
 24 25  1  0
 25 26  1  0
 26 27  1  0
 27 28  1  0
 27 29  1  0
 29 30  1  0
 23 31  1  0
 31 32  2  0
 18 33  1  0
 33 34  2  0
 10  5  1  0
 34 15  1  0
 34  9  1  0
 32 20  1  0
 30 24  1  0
M  END
$$$$
