
     RDKit          3D

 26 29  0  0  0  0  0  0  0  0999 V2000
  -19.9666   34.3212  -23.1227 C   0  0  0  0  0  0  0  0  0  0  0  0
  -19.3240   35.4528  -22.4786 N   0  0  0  0  0  0  0  0  0  0  0  0
  -19.9863   36.1679  -21.4539 C   0  0  0  0  0  0  0  0  0  0  0  0
  -21.0634   35.6604  -21.0222 O   0  0  0  0  0  0  0  0  0  0  0  0
  -19.5132   37.4212  -20.8818 C   0  0  0  0  0  0  0  0  0  0  0  0
  -18.8665   38.3423  -21.6790 C   0  0  0  0  0  0  0  0  0  0  0  0
  -18.4061   39.5332  -21.1784 C   0  0  0  0  0  0  0  0  0  0  0  0
  -18.5854   39.8350  -19.8457 C   0  0  0  0  0  0  0  0  0  0  0  0
  -18.1215   41.0477  -19.3161 O   0  0  0  0  0  0  0  0  0  0  0  0
  -18.4507   42.2285  -19.9527 C   0  0  0  0  0  0  0  0  0  0  0  0
  -19.7296   42.7189  -19.8241 C   0  0  0  0  0  0  0  0  0  0  0  0
  -20.0537   43.9051  -20.4660 C   0  0  0  0  0  0  0  0  0  0  0  0
  -19.1388   44.6046  -21.2249 C   0  0  0  0  0  0  0  0  0  0  0  0
  -17.8712   44.0859  -21.3314 C   0  0  0  0  0  0  0  0  0  0  0  0
  -17.5193   42.9104  -20.7060 C   0  0  0  0  0  0  0  0  0  0  0  0
  -16.7248   44.6321  -22.0726 C   0  0  0  0  0  0  0  0  0  0  0  0
  -17.0568   46.0335  -22.5908 C   0  0  0  0  0  0  0  0  0  0  0  0
  -17.5029   46.8411  -21.5040 N   0  0  0  0  0  0  0  0  0  0  0  0
  -16.7044   48.0224  -21.2959 C   0  0  0  0  0  0  0  0  0  0  0  0
  -16.7474   49.0530  -22.3666 C   0  0  0  0  0  0  0  0  0  0  0  0
  -15.2499   49.2883  -22.1241 C   0  0  0  0  0  0  0  0  0  0  0  0
  -15.2314   47.8886  -21.4951 C   0  0  0  0  0  0  0  0  0  0  0  0
  -18.9072   47.0762  -21.4396 C   0  0  0  0  0  0  0  0  0  0  0  0
  -19.6724   45.8477  -21.8309 C   0  0  0  0  0  0  0  0  0  0  0  0
  -19.2168   38.9295  -19.0802 N   0  0  0  0  0  0  0  0  0  0  0  0
  -19.6728   37.7560  -19.5638 C   0  0  0  0  0  0  0  0  0  0  0  0
  1  2  1  0
  2  3  1  0
  3  4  2  0
  3  5  1  0
  5  6  2  0
  6  7  1  0
  7  8  2  0
  8  9  1  0
  9 10  1  0
 10 11  2  0
 11 12  1  0
 12 13  2  0
 13 14  1  0
 14 15  2  0
 14 16  1  0
 16 17  1  0
 17 18  1  0
 18 19  1  0
 19 20  1  0
 20 21  1  0
 21 22  1  0
 18 23  1  0
 23 24  1  0
  8 25  1  0
 25 26  2  0
 26  5  1  0
 15 10  1  0
 22 19  1  0
 24 13  1  0
M  END
$$$$
