
     RDKit          3D

 26 27  0  0  0  0  0  0  0  0999 V2000
  -27.0963    8.5644  -23.9707 C   0  0  0  0  0  0  0  0  0  0  0  0
  -25.9685    9.5190  -24.2858 C   0  0  0  0  0  0  0  0  0  0  0  0
  -26.2275   10.8213  -23.8162 O   0  0  0  0  0  0  0  0  0  0  0  0
  -25.3235   11.8328  -23.8263 C   0  0  0  0  0  0  0  0  0  0  0  0
  -24.1084   11.6012  -23.6725 O   0  0  0  0  0  0  0  0  0  0  0  0
  -25.7314   13.2413  -24.0182 C   0  0  0  0  0  0  0  0  0  0  0  0
  -25.2744   13.8881  -25.0535 C   0  0  0  0  0  0  0  0  0  0  0  0
  -24.3445   13.2421  -26.0579 C   0  0  0  0  0  0  0  0  0  0  0  0
  -25.6435   15.2494  -25.2734 N   0  0  0  0  0  0  0  0  0  0  0  0
  -26.5110   15.8801  -24.3502 C   0  0  0  0  0  0  0  0  0  0  0  0
  -26.8960   17.3005  -24.5793 C   0  0  0  0  0  0  0  0  0  0  0  0
  -26.9962   15.2668  -23.2925 C   0  0  0  0  0  0  0  0  0  0  0  0
  -27.8906   15.9115  -22.3375 C   0  0  0  0  0  0  0  0  0  0  0  0
  -28.4573   17.0152  -22.6276 O   0  0  0  0  0  0  0  0  0  0  0  0
  -28.1973   15.4148  -21.0857 O   0  0  0  0  0  0  0  0  0  0  0  0
  -29.2617   15.9342  -20.2981 C   0  0  0  0  0  0  0  0  0  0  0  0
  -26.6349   13.8698  -23.0425 C   0  0  0  0  0  0  0  0  0  0  0  0
  -26.1817   13.6441  -21.6402 C   0  0  0  0  0  0  0  0  0  0  0  0
  -26.9795   12.9826  -20.7187 C   0  0  0  0  0  0  0  0  0  0  0  0
  -26.5853   12.7604  -19.4164 C   0  0  0  0  0  0  0  0  0  0  0  0
  -25.3479   13.2131  -19.0102 C   0  0  0  0  0  0  0  0  0  0  0  0
  -24.5312   13.8718  -19.8946 C   0  0  0  0  0  0  0  0  0  0  0  0
  -23.2525   14.3421  -19.4830 N   0  0  0  0  0  4  0  0  0  0  0  0
  -22.6863   15.2677  -20.0972 O   0  0  0  0  0  0  0  0  0  0  0  0
  -22.6008   13.8074  -18.4130 O   0  0  0  0  0  1  0  0  0  0  0  0
  -24.9551   14.0763  -21.1846 C   0  0  0  0  0  0  0  0  0  0  0  0
  1  2  1  0
  2  3  1  0
  3  4  1  0
  4  5  2  0
  4  6  1  0
  6  7  2  0
  7  8  1  0
  7  9  1  0
  9 10  1  0
 10 11  1  0
 10 12  2  0
 12 13  1  0
 13 14  2  0
 13 15  1  0
 15 16  1  0
 12 17  1  0
 17 18  1  0
 18 19  2  0
 19 20  1  0
 20 21  2  0
 21 22  1  0
 22 23  1  0
 23 24  2  0
 23 25  1  0
 22 26  2  0
 17  6  1  0
 26 18  1  0
M  CHG  2  23   1  25  -1
M  END
$$$$
