
     RDKit          3D

 25 26  0  0  0  0  0  0  0  0999 V2000
  -19.3610   40.0958  -22.9194 O   0  0  0  0  0  0  0  0  0  0  0  0
  -19.4554   40.4195  -21.6879 C   0  0  0  0  0  0  0  0  0  0  0  0
  -19.4849   41.7850  -21.3528 N   0  0  0  0  0  0  0  0  0  0  0  0
  -19.1500   42.7905  -22.3048 C   0  0  0  0  0  0  0  0  0  0  0  0
  -19.9095   44.0591  -22.0316 C   0  0  0  0  0  0  0  0  0  0  0  0
  -18.7168   45.3754  -21.9589 S   0  0  0  0  0  6  0  0  0  0  0  0
  -19.3430   46.6319  -21.4254 O   0  0  0  0  0  0  0  0  0  0  0  0
  -18.2565   45.6608  -23.3565 O   0  0  0  0  0  0  0  0  0  0  0  0
  -17.3872   44.8483  -20.9358 C   0  0  0  0  0  0  0  0  0  0  0  0
  -16.4554   43.9155  -21.3758 C   0  0  0  0  0  0  0  0  0  0  0  0
  -15.4121   43.5035  -20.5692 C   0  0  0  0  0  0  0  0  0  0  0  0
  -15.2659   44.0113  -19.2947 C   0  0  0  0  0  0  0  0  0  0  0  0
  -14.1370   43.5724  -18.4074 C   0  0  0  0  0  0  0  0  0  0  0  0
  -14.4465   42.2980  -17.9722 F   0  0  0  0  0  0  0  0  0  0  0  0
  -14.0862   44.3982  -17.3005 F   0  0  0  0  0  0  0  0  0  0  0  0
  -12.9375   43.6414  -19.0500 F   0  0  0  0  0  0  0  0  0  0  0  0
  -16.2048   44.9352  -18.8842 C   0  0  0  0  0  0  0  0  0  0  0  0
  -17.2134   45.3211  -19.6895 N   0  0  0  0  0  0  0  0  0  0  0  0
  -19.5289   39.3968  -20.6784 C   0  0  0  0  0  0  0  0  0  0  0  0
  -19.1800   39.7008  -19.3631 C   0  0  0  0  0  0  0  0  0  0  0  0
  -19.2388   38.7454  -18.3713 C   0  0  0  0  0  0  0  0  0  0  0  0
  -19.6450   37.4577  -18.6487 C   0  0  0  0  0  0  0  0  0  0  0  0
  -19.7073   36.2644  -17.3547 Cl  0  0  0  0  0  0  0  0  0  0  0  0
  -19.9913   37.1401  -19.9328 C   0  0  0  0  0  0  0  0  0  0  0  0
  -19.9272   38.1193  -20.9311 C   0  0  0  0  0  0  0  0  0  0  0  0
  1  2  2  0
  2  3  1  0
  3  4  1  0
  4  5  1  0
  5  6  1  0
  6  7  2  0
  6  8  2  0
  6  9  1  0
  9 10  2  0
 10 11  1  0
 11 12  2  0
 12 13  1  0
 13 14  1  0
 13 15  1  0
 13 16  1  0
 12 17  1  0
 17 18  2  0
  2 19  1  0
 19 20  2  0
 20 21  1  0
 21 22  2  0
 22 23  1  0
 22 24  1  0
 24 25  2  0
 18  9  1  0
 25 19  1  0
M  END
$$$$
