
     RDKit          3D

 32 36  0  0  0  0  0  0  0  0999 V2000
  -18.4866   47.2735  -24.9565 C   0  0  0  0  0  0  0  0  0  0  0  0
  -18.0889   46.4334  -23.7631 C   0  0  2  0  0  0  0  0  0  0  0  0
  -18.6035   45.0179  -23.8776 C   0  0  0  0  0  0  0  0  0  0  0  0
  -18.6549   44.6839  -22.4785 O   0  0  0  0  0  0  0  0  0  0  0  0
  -19.0058   45.8829  -21.8225 C   0  0  0  0  0  0  0  0  0  0  0  0
  -19.6215   46.0136  -20.5484 N   0  0  0  0  0  0  0  0  0  0  0  0
  -19.7756   44.9747  -19.6141 C   0  0  0  0  0  0  0  0  0  0  0  0
  -19.9209   45.1633  -18.2713 C   0  0  0  0  0  0  0  0  0  0  0  0
  -20.0650   44.1056  -17.3889 C   0  0  0  0  0  0  0  0  0  0  0  0
  -20.0639   42.8159  -17.8634 C   0  0  0  0  0  0  0  0  0  0  0  0
  -20.2024   41.7682  -17.0335 N   0  0  0  0  0  0  0  0  0  0  0  0
  -20.2069   40.4976  -17.4594 C   0  0  0  0  0  0  0  0  0  0  0  0
  -20.0671   40.2938  -18.7593 N   0  0  0  0  0  0  0  0  0  0  0  0
  -19.9200   41.2733  -19.6902 C   0  0  0  0  0  0  0  0  0  0  0  0
  -19.7777   40.9845  -21.0550 N   0  0  0  0  0  0  0  0  0  0  0  0
  -19.7539   39.6407  -21.5135 C   0  0  0  0  0  0  0  0  0  0  0  0
  -20.7813   38.7552  -21.4739 C   0  0  0  0  0  0  0  0  0  0  0  0
  -20.6188   37.4534  -21.9394 C   0  0  0  0  0  0  0  0  0  0  0  0
  -19.4340   36.9875  -22.4595 C   0  0  0  0  0  0  0  0  0  0  0  0
  -19.2574   35.6956  -22.9264 O   0  0  0  0  0  0  0  0  0  0  0  0
  -20.2701   34.7085  -22.8243 C   0  0  0  0  0  0  0  0  0  0  0  0
  -19.7454   33.4879  -23.4656 C   0  0  0  0  0  0  0  0  0  0  0  0
  -20.1300   32.2649  -23.6532 N   0  0  0  0  0  0  0  0  0  0  0  0
  -19.5149   31.3503  -24.2382 C   0  0  0  0  0  0  0  0  0  0  0  0
  -18.2096   31.6247  -24.7965 C   0  0  0  0  0  0  0  0  0  0  0  0
  -18.0960   33.3948  -24.3068 S   0  0  0  0  0  0  0  0  0  0  0  0
  -18.3912   37.8830  -22.5015 C   0  0  0  0  0  0  0  0  0  0  0  0
  -16.8606   37.3165  -23.1634 Cl  0  0  0  0  0  0  0  0  0  0  0  0
  -18.5433   39.1657  -22.0450 C   0  0  0  0  0  0  0  0  0  0  0  0
  -19.9200   42.5780  -19.2130 C   0  0  0  0  0  0  0  0  0  0  0  0
  -19.7801   43.6506  -20.0543 C   0  0  0  0  0  0  0  0  0  0  0  0
  -18.6906   46.8968  -22.5415 N   0  0  0  0  0  0  0  0  0  0  0  0
  2  1  1  6
  2  3  1  0
  3  4  1  0
  4  5  1  0
  5  6  1  0
  6  7  1  0
  7  8  2  0
  8  9  1  0
  9 10  2  0
 10 11  1  0
 11 12  2  0
 12 13  1  0
 13 14  2  0
 14 15  1  0
 15 16  1  0
 16 17  2  0
 17 18  1  0
 18 19  2  0
 19 20  1  0
 20 21  1  0
 21 22  1  0
 22 23  2  0
 23 24  1  0
 24 25  2  0
 25 26  1  0
 19 27  1  0
 27 28  1  0
 27 29  2  0
 14 30  1  0
 30 31  2  0
  5 32  2  0
 32  2  1  0
 31  7  1  0
 30 10  1  0
 29 16  1  0
 26 22  1  0
M  END
$$$$
