
     RDKit          3D

 20 21  0  0  0  0  0  0  0  0999 V2000
  -17.7676   33.8503  -21.4105 C   0  0  0  0  0  0  0  0  0  0  0  0
  -19.1867   34.3000  -21.4369 C   0  0  0  0  0  0  0  0  0  0  0  0
  -20.2698   33.6865  -20.9241 N   0  0  0  0  0  0  0  0  0  0  0  0
  -21.3363   34.4068  -21.1569 O   0  0  0  0  0  0  0  0  0  0  0  0
  -21.0472   35.4879  -21.8047 C   0  0  0  0  0  0  0  0  0  0  0  0
  -21.9273   36.5972  -22.2836 C   0  0  0  0  0  0  0  0  0  0  0  0
  -19.6700   35.4621  -22.0078 C   0  0  0  0  0  0  0  0  0  0  0  0
  -18.8865   36.5264  -22.7228 C   0  0  0  0  0  0  0  0  0  0  0  0
  -18.6987   37.5595  -21.7806 O   0  0  0  0  0  0  0  0  0  0  0  0
  -18.5886   38.9044  -22.1008 C   0  0  0  0  0  0  0  0  0  0  0  0
  -18.6272   39.2076  -23.3214 O   0  0  0  0  0  0  0  0  0  0  0  0
  -18.4297   39.9479  -21.0227 C   0  0  0  0  0  0  0  0  0  0  0  0
  -18.1492   41.2498  -21.7135 C   0  0  0  0  0  0  0  0  0  0  0  0
  -16.9443   41.8441  -21.4769 O   0  0  0  0  0  0  0  0  0  0  0  0
  -16.4842   42.7254  -20.5644 C   0  0  0  0  0  0  0  0  0  0  0  0
  -17.3526   43.6338  -19.9349 C   0  0  0  0  0  0  0  0  0  0  0  0
  -16.9045   44.5404  -19.0049 C   0  0  0  0  0  0  0  0  0  0  0  0
  -15.5637   44.5759  -18.6644 C   0  0  0  0  0  0  0  0  0  0  0  0
  -14.6885   43.6976  -19.2651 C   0  0  0  0  0  0  0  0  0  0  0  0
  -15.1659   42.7884  -20.2048 C   0  0  0  0  0  0  0  0  0  0  0  0
  1  2  1  0
  2  3  2  0
  3  4  1  0
  4  5  1  0
  5  6  1  0
  5  7  2  0
  7  8  1  0
  8  9  1  0
  9 10  1  0
 10 11  2  0
 10 12  1  0
 12 13  1  0
 13 14  1  0
 14 15  1  0
 15 16  2  0
 16 17  1  0
 17 18  2  0
 18 19  1  0
 19 20  2  0
  7  2  1  0
 20 15  1  0
M  END
$$$$
