
     RDKit          3D

 27 30  0  0  0  0  0  0  0  0999 V2000
  -20.4128   39.2720  -24.4302 C   0  0  0  0  0  0  0  0  0  0  0  0
  -20.4871   40.6532  -24.8403 N   0  0  0  0  0  4  0  0  0  0  0  0
  -20.9156   40.6888  -26.2128 C   0  0  0  0  0  0  0  0  0  0  0  0
  -21.3922   41.4373  -24.0235 C   0  0  1  0  0  0  0  0  0  0  0  0
  -21.0887   41.3740  -22.5731 C   0  0  0  0  0  0  0  0  0  0  0  0
  -19.7019   41.0063  -22.2090 C   0  0  2  0  0  0  0  0  0  0  0  0
  -19.2398   41.7618  -21.0775 O   0  0  0  0  0  0  0  0  0  0  0  0
  -18.8661   41.1467  -19.8940 C   0  0  0  0  0  0  0  0  0  0  0  0
  -18.9536   39.8949  -19.8661 O   0  0  0  0  0  0  0  0  0  0  0  0
  -18.3857   41.8797  -18.7059 C   0  0  0  0  0  0  0  0  0  0  0  0
  -18.1007   40.9474  -17.7101 O   0  0  0  0  0  0  0  0  0  0  0  0
  -19.4103   42.7803  -18.1856 C   0  0  0  0  0  0  0  0  0  0  0  0
  -19.4847   43.4814  -17.0578 C   0  0  0  0  0  0  0  0  0  0  0  0
  -20.5428   44.2551  -16.7882 C   0  0  0  0  0  0  0  0  0  0  0  0
  -21.5624   44.3095  -17.7134 C   0  0  0  0  0  0  0  0  0  0  0  0
  -20.9571   43.2041  -19.0042 S   0  0  0  0  0  0  0  0  0  0  0  0
  -17.1033   42.5767  -19.0002 C   0  0  0  0  0  0  0  0  0  0  0  0
  -16.2035   43.1774  -18.2127 C   0  0  0  0  0  0  0  0  0  0  0  0
  -15.1226   43.7325  -18.7580 C   0  0  0  0  0  0  0  0  0  0  0  0
  -14.9569   43.6760  -20.1083 C   0  0  0  0  0  0  0  0  0  0  0  0
  -16.4731   42.7571  -20.5986 S   0  0  0  0  0  0  0  0  0  0  0  0
  -18.6851   41.1931  -23.2890 C   0  0  0  0  0  0  0  0  0  0  0  0
  -19.2466   41.3697  -24.6544 C   0  0  2  0  0  0  0  0  0  0  0  0
  -19.6785   42.8243  -24.8018 C   0  0  1  0  0  0  0  0  0  0  0  0
  -20.6281   43.0799  -25.7553 O   0  0  0  0  0  0  0  0  0  0  0  0
  -21.1654   42.8398  -24.5039 C   0  0  1  0  0  0  0  0  0  0  0  0
  -19.3472   41.9162  -21.5909 Br  0  0  0  0  0 15  0  0  0  0  0  0
  1  2  1  0
  2  3  1  0
  2  4  1  0
  4  5  1  1
  5  6  1  0
  6  7  1  1
  7  8  1  0
  8  9  2  0
  8 10  1  0
 10 11  1  0
 10 12  1  0
 12 13  2  0
 13 14  1  0
 14 15  2  0
 15 16  1  0
 10 17  1  0
 17 18  2  0
 18 19  1  0
 19 20  2  0
 20 21  1  0
  6 22  1  0
 23 22  1  1
 23 24  1  0
 24 25  1  6
 26 25  1  6
 23  2  1  0
 26 24  1  0
 26  4  1  0
 16 12  1  0
 21 17  1  0
M  CHG  2   2   1  27  -1
M  END
$$$$
