
     RDKit          3D

 15 17  0  0  0  0  0  0  0  0999 V2000
  -11.6377   10.4783  -26.6963 Cl  0  0  0  0  0  0  0  0  0  0  0  0
  -12.5562   11.6753  -27.5730 C   0  0  0  0  0  0  0  0  0  0  0  0
  -11.8712   12.7763  -28.0481 C   0  0  0  0  0  0  0  0  0  0  0  0
  -12.6229   13.7078  -28.7383 C   0  0  0  0  0  0  0  0  0  0  0  0
  -13.9489   13.6020  -28.9655 C   0  0  0  0  0  0  0  0  0  0  0  0
  -14.6383   12.5189  -28.5014 C   0  0  0  0  0  0  0  0  0  0  0  0
  -13.9120   11.5461  -27.7933 C   0  0  0  0  0  0  0  0  0  0  0  0
  -16.0158   12.3605  -28.7098 N   0  0  0  0  0  0  0  0  0  0  0  0
  -16.8773   13.2376  -29.3930 C   0  0  0  0  0  0  0  0  0  0  0  0
  -18.2399   12.9283  -29.5128 C   0  0  0  0  0  0  0  0  0  0  0  0
  -19.1258   13.7445  -30.1668 C   0  0  0  0  0  0  0  0  0  0  0  0
  -18.6922   14.9302  -30.7444 C   0  0  0  0  0  0  0  0  0  0  0  0
  -17.3520   15.2385  -30.6288 C   0  0  0  0  0  0  0  0  0  0  0  0
  -16.4799   14.4152  -29.9738 C   0  0  0  0  0  0  0  0  0  0  0  0
  -14.7584   14.8958  -29.8733 S   0  0  0  0  0  0  0  0  0  0  0  0
  1  2  1  0
  2  3  2  0
  3  4  1  0
  4  5  2  0
  5  6  1  0
  6  7  2  0
  6  8  1  0
  8  9  1  0
  9 10  2  0
 10 11  1  0
 11 12  2  0
 12 13  1  0
 13 14  2  0
 14 15  1  0
  7  2  1  0
 14  9  1  0
 15  5  1  0
M  END
$$$$
