
     RDKit          3D

 39 41  0  0  0  0  0  0  0  0999 V2000
    4.1578    5.6031  -17.7327 C   0  0  0  0  0  0  0  0  0  0  0  0
    3.9531    6.8912  -18.3675 N   0  0  0  0  0  0  0  0  0  0  0  0
    2.7939    7.4944  -17.7895 C   0  0  0  0  0  0  0  0  0  0  0  0
    1.9776    8.1570  -18.9080 C   0  0  0  0  0  0  0  0  0  0  0  0
    2.9058    8.8700  -19.7242 N   0  0  0  0  0  0  0  0  0  0  0  0
    2.4258   10.0490  -20.3554 C   0  0  1  0  0  0  0  0  0  0  0  0
    2.0114   11.0455  -19.2959 C   0  0  0  0  0  0  0  0  0  0  0  0
    3.0341   12.1477  -19.1195 C   0  0  0  0  0  0  0  0  0  0  0  0
    3.2936   12.9119  -20.3731 C   0  0  2  0  0  0  0  0  0  0  0  0
    2.5095   14.1532  -20.4460 N   0  0  0  0  0  0  0  0  0  0  0  0
    2.9625   15.3581  -20.0976 C   0  0  0  0  0  0  0  0  0  0  0  0
    1.9841   16.3272  -20.2807 C   0  0  0  0  0  0  0  0  0  0  0  0
    2.1288   17.7729  -20.0335 C   0  0  0  0  0  0  0  0  0  0  0  0
    1.8939   18.7029  -21.0211 C   0  0  0  0  0  0  0  0  0  0  0  0
    2.0149   20.0407  -20.7662 C   0  0  0  0  0  0  0  0  0  0  0  0
    2.3734   20.5343  -19.5290 C   0  0  0  0  0  0  0  0  0  0  0  0
    2.4929   21.9018  -19.2834 O   0  0  0  0  0  0  0  0  0  0  0  0
    2.8562   22.3197  -18.0209 C   0  0  0  0  0  0  0  0  0  0  0  0
    1.9401   22.5896  -17.0269 C   0  0  0  0  0  0  0  0  0  0  0  0
    2.3393   23.0081  -15.7678 C   0  0  0  0  0  0  0  0  0  0  0  0
    3.6701   23.1677  -15.4700 C   0  0  0  0  0  0  0  0  0  0  0  0
    4.5966   22.9020  -16.4522 C   0  0  0  0  0  0  0  0  0  0  0  0
    4.1854   22.4835  -17.7096 C   0  0  0  0  0  0  0  0  0  0  0  0
    2.6047   19.5842  -18.5541 C   0  0  0  0  0  0  0  0  0  0  0  0
    2.4898   18.2367  -18.7841 C   0  0  0  0  0  0  0  0  0  0  0  0
    0.8845   15.6609  -20.7650 C   0  0  0  0  0  0  0  0  0  0  0  0
   -0.3877   16.0475  -21.1330 C   0  0  0  0  0  0  0  0  0  0  0  0
   -0.7399   17.4185  -21.0136 N   0  0  0  0  0  0  0  0  0  0  0  0
   -1.2817   15.1329  -21.5811 N   0  0  0  0  0  0  0  0  0  0  0  0
   -0.9149   13.8516  -21.6610 C   0  0  0  0  0  0  0  0  0  0  0  0
    0.3140   13.4428  -21.3099 N   0  0  0  0  0  0  0  0  0  0  0  0
    1.2365   14.3078  -20.8599 C   0  0  0  0  0  0  0  0  0  0  0  0
    3.0795   12.0390  -21.5805 C   0  0  0  0  0  0  0  0  0  0  0  0
    3.5659   10.6373  -21.1833 C   0  0  0  0  0  0  0  0  0  0  0  0
    3.6119    7.9472  -20.5555 C   0  0  0  0  0  0  0  0  0  0  0  0
    3.8556    6.6636  -19.7959 C   0  0  0  0  0  0  0  0  0  0  0  0
    2.4093   14.8367  -19.3173 Cl  0  0  0  0  0  0  0  0  0  0  0  0
    2.4095   14.8343  -19.3174 Cl  0  0  0  0  0  0  0  0  0  0  0  0
    2.4096   14.8321  -19.3175 Cl  0  0  0  0  0  0  0  0  0  0  0  0
  1  2  1  0
  2  3  1  0
  3  4  1  0
  4  5  1  0
  6  5  1  1
  6  7  1  0
  7  8  1  0
  8  9  1  0
  9 10  1  6
 10 11  1  0
 11 12  2  0
 12 13  1  0
 13 14  2  0
 14 15  1  0
 15 16  2  0
 16 17  1  0
 17 18  1  0
 18 19  2  0
 19 20  1  0
 20 21  2  0
 21 22  1  0
 22 23  2  0
 16 24  1  0
 24 25  2  0
 12 26  1  0
 26 27  2  0
 27 28  1  0
 27 29  1  0
 29 30  2  0
 30 31  1  0
 31 32  2  0
  9 33  1  0
 33 34  1  0
  5 35  1  0
 35 36  1  0
 36  2  1  0
 34  6  1  0
 32 10  1  0
 25 13  1  0
 32 26  1  0
 23 18  1  0
M  END
$$$$
