
     RDKit          3D

 29 31  0  0  0  0  0  0  0  0999 V2000
  -18.6368   14.8317  -29.4724 C   0  0  0  0  0  0  0  0  0  0  0  0
  -17.4985   15.6490  -29.5301 O   0  0  0  0  0  0  0  0  0  0  0  0
  -17.0009   16.0192  -30.7901 C   0  0  0  0  0  0  0  0  0  0  0  0
  -15.6801   15.8338  -31.1365 C   0  0  0  0  0  0  0  0  0  0  0  0
  -15.2629   16.2188  -32.3845 C   0  0  0  0  0  0  0  0  0  0  0  0
  -16.1140   16.7966  -33.3372 C   0  0  0  0  0  0  0  0  0  0  0  0
  -15.5824   17.1716  -34.6306 C   0  0  0  0  0  0  0  0  0  0  0  0
  -16.0507   16.6978  -35.7521 C   0  0  0  0  0  0  0  0  0  0  0  0
  -15.4629   16.9983  -37.0767 C   0  0  0  0  0  0  0  0  0  0  0  0
  -15.9378   16.4400  -38.1201 O   0  0  0  0  0  0  0  0  0  0  0  0
  -14.3808   17.8880  -37.2604 N   0  0  0  0  0  0  0  0  0  0  0  0
  -13.8486   18.0380  -38.5900 C   0  0  0  0  0  0  0  0  0  0  0  0
  -12.7131   18.7955  -38.9086 N   0  0  0  0  0  0  0  0  0  0  0  0
  -12.3514   18.8420  -40.1317 C   0  0  0  0  0  0  0  0  0  0  0  0
  -13.0061   18.2021  -41.1171 C   0  0  0  0  0  0  0  0  0  0  0  0
  -12.8582   18.0603  -42.5330 C   0  0  0  0  0  0  0  0  0  0  0  0
  -13.8722   18.7675  -43.3491 C   0  0  0  0  0  0  0  0  0  0  0  0
  -15.0672   18.1261  -43.6313 C   0  0  0  0  0  0  0  0  0  0  0  0
  -16.0099   18.7898  -44.3929 C   0  0  0  0  0  0  0  0  0  0  0  0
  -15.7829   20.0811  -44.8782 C   0  0  0  0  0  0  0  0  0  0  0  0
  -14.5950   20.7063  -44.5920 C   0  0  0  0  0  0  0  0  0  0  0  0
  -14.3179   22.0805  -45.0912 C   0  0  0  0  0  0  0  0  0  0  0  0
  -15.0418   22.9665  -44.3299 F   0  0  0  0  0  0  0  0  0  0  0  0
  -14.7023   22.2144  -46.4003 F   0  0  0  0  0  0  0  0  0  0  0  0
  -12.9525   22.3432  -44.9990 F   0  0  0  0  0  0  0  0  0  0  0  0
  -13.6580   20.0461  -43.8348 C   0  0  0  0  0  0  0  0  0  0  0  0
  -14.3392   17.4234  -40.1061 S   0  0  0  0  0  0  0  0  0  0  0  0
  -17.4216   16.9597  -32.9416 C   0  0  0  0  0  0  0  0  0  0  0  0
  -17.8766   16.5827  -31.6909 C   0  0  0  0  0  0  0  0  0  0  0  0
  1  2  1  0
  2  3  1  0
  3  4  2  0
  4  5  1  0
  5  6  2  0
  6  7  1  0
  7  8  2  0
  8  9  1  0
  9 10  2  0
  9 11  1  0
 11 12  1  0
 12 13  2  0
 13 14  1  0
 14 15  2  0
 15 16  1  0
 16 17  1  0
 17 18  2  0
 18 19  1  0
 19 20  2  0
 20 21  1  0
 21 22  1  0
 22 23  1  0
 22 24  1  0
 22 25  1  0
 21 26  2  0
 15 27  1  0
  6 28  1  0
 28 29  2  0
 29  3  1  0
 27 12  1  0
 26 17  1  0
M  END
$$$$
