
     RDKit          3D

 26 29  0  0  0  0  0  0  0  0999 V2000
  -21.0578   38.1516  -22.5545 C   0  0  0  0  0  0  0  0  0  0  0  0
  -19.6418   38.3038  -22.7000 O   0  0  0  0  0  0  0  0  0  0  0  0
  -19.0397   39.3964  -22.0907 C   0  0  0  0  0  0  0  0  0  0  0  0
  -18.2405   39.1643  -20.9880 C   0  0  0  0  0  0  0  0  0  0  0  0
  -17.9663   37.5589  -20.3414 Cl  0  0  0  0  0  0  0  0  0  0  0  0
  -17.6200   40.2270  -20.3507 C   0  0  0  0  0  0  0  0  0  0  0  0
  -17.8139   41.5009  -20.8325 C   0  0  0  0  0  0  0  0  0  0  0  0
  -18.6293   41.7212  -21.9527 C   0  0  0  0  0  0  0  0  0  0  0  0
  -18.6153   43.0550  -22.1694 N   0  0  0  0  0  0  0  0  0  0  0  0
  -17.8341   43.6623  -21.2397 C   0  0  0  0  0  0  0  0  0  0  0  0
  -17.5188   44.9986  -21.0523 C   0  0  0  0  0  0  0  0  0  0  0  0
  -16.7168   45.3376  -20.0423 N   0  0  0  0  0  0  0  0  0  0  0  0
  -16.1802   44.4396  -19.1717 C   0  0  0  0  0  0  0  0  0  0  0  0
  -16.4968   43.1127  -19.3625 C   0  0  0  0  0  0  0  0  0  0  0  0
  -17.3215   42.7083  -20.3911 C   0  0  0  0  0  0  0  0  0  0  0  0
  -19.2464   40.6701  -22.5887 C   0  0  0  0  0  0  0  0  0  0  0  0
  -20.0669   40.8978  -23.7215 N   0  0  0  0  0  0  0  0  0  0  0  0
  -21.2803   41.6500  -23.6148 C   0  0  0  0  0  0  0  0  0  0  0  0
  -21.5740   41.9872  -22.4071 O   0  0  0  0  0  0  0  0  0  0  0  0
  -22.1380   42.0271  -24.6957 C   0  0  0  0  0  0  0  0  0  0  0  0
  -23.5128   42.1633  -24.4677 C   0  0  0  0  0  0  0  0  0  0  0  0
  -24.3722   42.5264  -25.4834 C   0  0  0  0  0  0  0  0  0  0  0  0
  -23.8826   42.7657  -26.7651 C   0  0  0  0  0  0  0  0  0  0  0  0
  -22.5740   42.6308  -26.9573 N   0  0  0  0  0  0  0  0  0  0  0  0
  -21.6974   42.2696  -25.9620 C   0  0  0  0  0  0  0  0  0  0  0  0
  -20.2558   42.1454  -26.2770 C   0  0  0  0  0  0  0  0  0  0  0  0
  1  2  1  0
  2  3  1  0
  3  4  2  0
  4  5  1  0
  4  6  1  0
  6  7  2  0
  7  8  1  0
  8  9  1  0
  9 10  1  0
 10 11  2  0
 11 12  1  0
 12 13  2  0
 13 14  1  0
 14 15  2  0
  8 16  2  0
 16 17  1  0
 17 18  1  0
 18 19  2  0
 18 20  1  0
 20 21  2  0
 21 22  1  0
 22 23  2  0
 23 24  1  0
 24 25  2  0
 25 26  1  0
 16  3  1  0
 25 20  1  0
 15  7  1  0
 15 10  1  0
M  END
$$$$
