
     RDKit          3D

 37 40  0  0  0  0  0  0  0  0999 V2000
  -15.5890   15.9425  -35.3473 C   0  0  0  0  0  0  0  0  0  0  0  0
  -15.7666   17.2919  -35.7238 O   0  0  0  0  0  0  0  0  0  0  0  0
  -15.9777   17.5758  -37.0660 C   0  0  0  0  0  0  0  0  0  0  0  0
  -14.9107   17.6209  -37.9448 C   0  0  0  0  0  0  0  0  0  0  0  0
  -15.1165   17.9064  -39.3022 C   0  0  0  0  0  0  0  0  0  0  0  0
  -14.0812   17.9611  -40.2016 C   0  0  0  0  0  0  0  0  0  0  0  0
  -12.7576   17.7223  -39.7936 N   0  0  0  0  0  0  0  0  0  0  0  0
  -11.6411   18.5513  -40.2307 C   0  0  0  0  0  0  0  0  0  0  0  0
  -10.3320   18.0885  -39.6991 C   0  0  0  0  0  0  0  0  0  0  0  0
   -9.2808   18.2227  -40.7750 C   0  0  0  0  0  0  0  0  0  0  0  0
   -9.5609   17.3379  -41.8932 N   0  0  0  0  0  0  0  0  0  0  0  0
   -8.5625   17.4085  -42.9141 C   0  0  0  0  0  0  0  0  0  0  0  0
  -10.8891   17.5550  -42.4134 C   0  0  0  0  0  0  0  0  0  0  0  0
  -11.5835   18.7131  -41.7086 C   0  0  0  0  0  0  0  0  0  0  0  0
  -14.3771   18.2467  -41.4942 N   0  0  0  0  0  0  0  0  0  0  0  0
  -15.6156   18.4812  -41.9611 C   0  0  0  0  0  0  0  0  0  0  0  0
  -15.8162   18.7761  -43.3512 N   0  0  0  0  0  0  0  0  0  0  0  0
  -17.2741   18.8633  -43.5786 C   0  0  0  0  0  0  0  0  0  0  0  0
  -17.5618   20.1490  -44.4552 C   0  0  0  0  0  0  0  0  0  0  0  0
  -16.2739   20.5844  -44.8115 C   0  0  0  0  0  0  0  0  0  0  0  0
  -15.1106   21.0861  -45.2331 N   0  0  0  0  0  0  0  0  0  0  0  0
  -14.7731   22.4644  -45.0231 C   0  0  0  0  0  0  0  0  0  0  0  0
  -14.0647   20.1950  -44.6097 C   0  0  0  0  0  0  0  0  0  0  0  0
  -14.6427   18.8997  -44.1066 C   0  0  0  0  0  0  0  0  0  0  0  0
  -16.5945   18.4174  -41.0509 N   0  0  0  0  0  0  0  0  0  0  0  0
  -16.3941   18.1442  -39.7644 C   0  0  0  0  0  0  0  0  0  0  0  0
  -17.4326   18.0919  -38.8658 C   0  0  0  0  0  0  0  0  0  0  0  0
  -17.2457   17.8127  -37.5292 C   0  0  0  0  0  0  0  0  0  0  0  0
  -18.2821   17.7575  -36.6135 O   0  0  0  0  0  0  0  0  0  0  0  0
  -19.3614   18.6696  -36.7674 C   0  0  0  0  0  0  0  0  0  0  0  0
  -20.6261   17.8501  -36.3746 C   0  0  0  0  0  0  0  0  0  0  0  0
  -21.5717   18.5432  -35.9734 O   0  0  0  0  0  0  0  0  0  0  0  0
  -22.5001   19.2509  -35.5361 C   0  0  0  0  0  0  0  0  0  0  0  0
  -22.1832   20.0874  -34.2705 C   0  0  0  0  0  0  0  0  0  0  0  0
  -23.3449   20.7092  -33.7292 N   0  0  0  0  0  0  0  0  0  0  0  0
  -24.0799   19.9429  -32.7732 C   0  0  0  0  0  0  0  0  0  0  0  0
  -23.1332   22.0795  -33.3775 C   0  0  0  0  0  0  0  0  0  0  0  0
  1  2  1  0
  2  3  1  0
  3  4  2  0
  4  5  1  0
  5  6  2  0
  6  7  1  0
  7  8  1  0
  8  9  1  0
  9 10  1  0
 10 11  1  0
 11 12  1  0
 11 13  1  0
 13 14  1  0
  6 15  1  0
 15 16  2  0
 16 17  1  0
 17 18  1  0
 18 19  1  0
 19 20  1  0
 20 21  1  0
 21 22  1  0
 21 23  1  0
 23 24  1  0
 16 25  1  0
 25 26  2  0
 26 27  1  0
 27 28  2  0
 28 29  1  0
 29 30  1  0
 30 31  1  0
 31 32  1  0
 32 33  1  0
 33 34  1  0
 34 35  1  0
 35 36  1  0
 35 37  1  0
 28  3  1  0
 26  5  1  0
 14  8  1  0
 24 17  1  0
M  END
$$$$
