
     RDKit          3D

 38 41  0  0  0  0  0  0  0  0999 V2000
  -22.7237   18.0880  -29.1692 C   0  0  0  0  0  0  0  0  0  0  0  0
  -21.9599   18.7031  -30.3453 C   0  0  0  0  0  0  0  0  0  0  0  0
  -21.0571   17.7075  -31.0219 C   0  0  0  0  0  0  0  0  0  0  0  0
  -22.9442   19.1727  -31.2169 O   0  0  0  0  0  0  0  0  0  0  0  0
  -21.1306   19.8644  -29.8487 C   0  0  0  0  0  0  0  0  0  0  0  0
  -21.9636   21.0624  -29.6805 C   0  0  0  0  0  0  0  0  0  0  0  0
  -21.4530   22.1898  -29.6425 O   0  0  0  0  0  0  0  0  0  0  0  0
  -23.3664   20.9238  -29.5562 N   0  0  0  0  0  0  0  0  0  0  0  0
  -24.2655   22.0239  -29.4995 C   0  0  0  0  0  0  0  0  0  0  0  0
  -24.5090   22.6006  -28.1483 C   0  0  0  0  0  0  0  0  0  0  0  0
  -23.7077   23.7816  -27.9063 N   0  0  0  0  0  0  0  0  0  0  0  0
  -23.2984   24.0517  -26.6079 C   0  0  0  0  0  0  0  0  0  0  0  0
  -22.6768   25.2719  -26.6430 C   0  0  0  0  0  0  0  0  0  0  0  0
  -22.6958   25.7501  -27.9318 C   0  0  0  0  0  0  0  0  0  0  0  0
  -22.2057   26.8693  -28.4748 N   0  0  0  0  0  0  0  0  0  0  0  0
  -22.3411   27.0710  -29.7907 C   0  0  0  0  0  0  0  0  0  0  0  0
  -22.9602   26.1616  -30.5593 N   0  0  0  0  0  0  0  0  0  0  0  0
  -23.4780   25.0026  -30.0478 C   0  0  0  0  0  0  0  0  0  0  0  0
  -24.0463   24.0788  -30.9387 N   0  0  0  0  0  0  0  0  0  0  0  0
  -24.4019   24.4394  -32.2722 C   0  0  0  0  0  0  0  0  0  0  0  0
  -25.5210   23.9258  -32.8950 C   0  0  0  0  0  0  0  0  0  0  0  0
  -25.8670   24.2727  -34.1894 C   0  0  0  0  0  0  0  0  0  0  0  0
  -25.1048   25.1542  -34.9228 C   0  0  0  0  0  0  0  0  0  0  0  0
  -25.4072   25.5337  -36.2245 O   0  0  0  0  0  0  0  0  0  0  0  0
  -25.5920   24.6717  -37.2685 C   0  0  0  0  0  0  0  0  0  0  0  0
  -24.5216   24.0075  -37.8096 C   0  0  0  0  0  0  0  0  0  0  0  0
  -24.7299   23.1455  -38.8588 C   0  0  0  0  0  0  0  0  0  0  0  0
  -25.9781   22.9191  -39.3936 C   0  0  0  0  0  0  0  0  0  0  0  0
  -27.0357   23.6087  -38.8204 C   0  0  0  0  0  0  0  0  0  0  0  0
  -28.4289   23.4271  -39.3392 C   0  0  0  0  0  0  0  0  0  0  0  0
  -29.0554   24.6298  -39.5692 F   0  0  0  0  0  0  0  0  0  0  0  0
  -28.4665   22.6321  -40.4617 F   0  0  0  0  0  0  0  0  0  0  0  0
  -29.1095   22.7411  -38.3312 F   0  0  0  0  0  0  0  0  0  0  0  0
  -26.8501   24.4749  -37.7713 C   0  0  0  0  0  0  0  0  0  0  0  0
  -23.9781   25.6729  -34.2990 C   0  0  0  0  0  0  0  0  0  0  0  0
  -22.9926   26.8015  -35.2246 Cl  0  0  0  0  0  0  0  0  0  0  0  0
  -23.6345   25.3230  -33.0022 C   0  0  0  0  0  0  0  0  0  0  0  0
  -23.3603   24.7672  -28.7034 C   0  0  0  0  0  0  0  0  0  0  0  0
  1  2  1  0
  2  3  1  0
  2  4  1  0
  2  5  1  0
  5  6  1  0
  6  7  2  0
  6  8  1  0
  8  9  1  0
  9 10  1  0
 10 11  1  0
 11 12  1  0
 12 13  2  0
 13 14  1  0
 14 15  2  0
 15 16  1  0
 16 17  2  0
 17 18  1  0
 18 19  1  0
 19 20  1  0
 20 21  2  0
 21 22  1  0
 22 23  2  0
 23 24  1  0
 24 25  1  0
 25 26  2  0
 26 27  1  0
 27 28  2  0
 28 29  1  0
 29 30  1  0
 30 31  1  0
 30 32  1  0
 30 33  1  0
 29 34  2  0
 23 35  1  0
 35 36  1  0
 35 37  2  0
 18 38  2  0
 38 11  1  0
 38 14  1  0
 37 20  1  0
 34 25  1  0
M  END
$$$$
