
     RDKit          3D

 27 31  0  0  0  0  0  0  0  0999 V2000
  -18.5478   44.4694  -19.7635 C   0  0  0  0  0  0  0  0  0  0  0  0
  -18.3045   43.9282  -21.0466 O   0  0  0  0  0  0  0  0  0  0  0  0
  -18.3948   42.5555  -21.2052 C   0  0  0  0  0  0  0  0  0  0  0  0
  -18.2406   41.6602  -20.1695 C   0  0  0  0  0  0  0  0  0  0  0  0
  -18.3300   40.2923  -20.3243 C   0  0  0  0  0  0  0  0  0  0  0  0
  -18.5905   39.7655  -21.5929 C   0  0  0  0  0  0  0  0  0  0  0  0
  -18.6907   38.3287  -21.7925 C   0  0  0  0  0  0  0  0  0  0  0  0
  -17.5979   37.4884  -21.7434 C   0  0  0  0  0  0  0  0  0  0  0  0
  -17.7799   36.1747  -21.9390 N   0  0  0  0  0  0  0  0  0  0  0  0
  -19.0047   35.6331  -22.1852 C   0  0  0  0  0  0  0  0  0  0  0  0
  -19.4542   34.3550  -22.4146 C   0  0  0  0  0  0  0  0  0  0  0  0
  -18.6434   33.1389  -22.4554 C   0  0  0  0  0  0  0  0  0  0  0  0
  -18.5855   32.3308  -23.5758 C   0  0  0  0  0  0  0  0  0  0  0  0
  -17.8219   31.1820  -23.6187 C   0  0  0  0  0  0  0  0  0  0  0  0
  -17.0923   30.8301  -22.5037 C   0  0  0  0  0  0  0  0  0  0  0  0
  -17.1562   31.6474  -21.3830 C   0  0  0  0  0  0  0  0  0  0  0  0
  -16.4492   31.3199  -20.2805 N   0  0  0  0  0  0  0  0  0  0  0  0
  -16.4998   32.0982  -19.1881 C   0  0  0  0  0  0  0  0  0  0  0  0
  -17.2515   33.2481  -19.1165 C   0  0  0  0  0  0  0  0  0  0  0  0
  -17.9835   33.6076  -20.2265 C   0  0  0  0  0  0  0  0  0  0  0  0
  -17.9132   32.7892  -21.3361 C   0  0  0  0  0  0  0  0  0  0  0  0
  -20.8109   34.4278  -22.6006 C   0  0  0  0  0  0  0  0  0  0  0  0
  -21.1714   35.7070  -22.4877 N   0  0  0  0  0  0  0  0  0  0  0  0
  -20.0916   36.4180  -22.2406 N   0  0  0  0  0  0  0  0  0  0  0  0
  -19.9162   37.7608  -22.0422 C   0  0  0  0  0  0  0  0  0  0  0  0
  -18.7441   40.6430  -22.6205 C   0  0  0  0  0  0  0  0  0  0  0  0
  -18.6537   42.0002  -22.4578 C   0  0  0  0  0  0  0  0  0  0  0  0
  1  2  1  0
  2  3  1  0
  3  4  2  0
  4  5  1  0
  5  6  2  0
  6  7  1  0
  7  8  1  0
  8  9  2  0
  9 10  1  0
 10 11  2  0
 11 12  1  0
 12 13  2  0
 13 14  1  0
 14 15  2  0
 15 16  1  0
 16 17  2  0
 17 18  1  0
 18 19  2  0
 19 20  1  0
 20 21  2  0
 11 22  1  0
 22 23  2  0
 23 24  1  0
 24 25  1  0
  6 26  1  0
 26 27  2  0
 27  3  1  0
 25  7  2  0
 24 10  1  0
 21 12  1  0
 21 16  1  0
M  END
$$$$
