
     RDKit          3D

 36 40  0  0  0  0  0  0  0  0999 V2000
  -21.5831   12.1625  -21.5053 C   0  0  0  0  0  0  0  0  0  0  0  0
  -22.7474   12.3584  -22.2914 O   0  0  0  0  0  0  0  0  0  0  0  0
  -24.0057   12.2767  -21.6591 C   0  0  0  0  0  0  0  0  0  0  0  0
  -24.1045   12.1323  -20.3325 N   0  0  0  0  0  0  0  0  0  0  0  0
  -25.2982   12.0520  -19.6970 C   0  0  0  0  0  0  0  0  0  0  0  0
  -26.4852   12.1158  -20.3925 C   0  0  0  0  0  0  0  0  0  0  0  0
  -27.7552   12.0437  -19.6981 C   0  0  0  0  0  0  0  0  0  0  0  0
  -27.8011   11.4927  -18.4101 C   0  0  0  0  0  0  0  0  0  0  0  0
  -28.9879   11.4153  -17.7259 C   0  0  0  0  0  0  0  0  0  0  0  0
  -30.1855   11.8604  -18.2404 C   0  0  0  0  0  0  0  0  0  0  0  0
  -31.3360   11.7794  -17.5348 N   0  0  0  0  0  0  0  0  0  0  0  0
  -32.5077   12.2172  -18.0153 C   0  0  0  0  0  0  0  0  0  0  0  0
  -32.5453   12.7676  -19.2683 C   0  0  0  0  0  0  0  0  0  0  0  0
  -31.3610   12.8601  -20.0174 C   0  0  0  0  0  0  0  0  0  0  0  0
  -31.3972   13.4058  -21.3604 C   0  0  0  0  0  0  0  0  0  0  0  0
  -31.2421   12.5842  -22.4539 C   0  0  0  0  0  0  0  0  0  0  0  0
  -31.2413   13.1146  -23.7515 C   0  0  0  0  0  0  0  0  0  0  0  0
  -31.3932   14.4353  -23.9309 N   0  0  0  0  0  0  0  0  0  0  0  0
  -31.5401   15.2070  -22.8772 N   0  0  0  0  0  0  0  0  0  0  0  0
  -31.5477   14.7451  -21.6060 C   0  0  0  0  0  0  0  0  0  0  0  0
  -30.1591   12.4096  -19.5180 C   0  0  0  0  0  0  0  0  0  0  0  0
  -28.9595   12.4860  -20.2037 C   0  0  0  0  0  0  0  0  0  0  0  0
  -26.3755   12.2629  -21.7491 C   0  0  0  0  0  0  0  0  0  0  0  0
  -25.1741   12.3469  -22.4180 C   0  0  0  0  0  0  0  0  0  0  0  0
  -25.0036   12.5471  -23.8017 N   0  0  0  0  0  0  0  0  0  0  0  0
  -25.8237   13.6149  -24.8225 S   0  0  0  0  0  6  0  0  0  0  0  0
  -27.0589   12.9779  -25.4458 O   0  0  0  0  0  0  0  0  0  0  0  0
  -24.9420   13.9657  -26.0135 O   0  0  0  0  0  0  0  0  0  0  0  0
  -26.3202   15.0672  -24.0432 C   0  0  0  0  0  0  0  0  0  0  0  0
  -25.4615   16.1185  -23.8674 C   0  0  0  0  0  0  0  0  0  0  0  0
  -25.8890   17.2842  -23.2537 C   0  0  0  0  0  0  0  0  0  0  0  0
  -27.1872   17.3840  -22.8190 C   0  0  0  0  0  0  0  0  0  0  0  0
  -27.5904   18.5469  -22.2140 F   0  0  0  0  0  0  0  0  0  0  0  0
  -28.0556   16.3477  -22.9864 C   0  0  0  0  0  0  0  0  0  0  0  0
  -27.6448   15.2004  -23.5870 C   0  0  0  0  0  0  0  0  0  0  0  0
  -28.4742   14.1396  -23.7763 F   0  0  0  0  0  0  0  0  0  0  0  0
  1  2  1  0
  2  3  1  0
  3  4  2  0
  4  5  1  0
  5  6  2  0
  6  7  1  0
  7  8  2  0
  8  9  1  0
  9 10  2  0
 10 11  1  0
 11 12  2  0
 12 13  1  0
 13 14  2  0
 14 15  1  0
 15 16  2  0
 16 17  1  0
 17 18  2  0
 18 19  1  0
 19 20  2  0
 14 21  1  0
 21 22  2  0
  6 23  1  0
 23 24  2  0
 24 25  1  0
 25 26  1  0
 26 27  2  0
 26 28  2  0
 26 29  1  0
 29 30  2  0
 30 31  1  0
 31 32  2  0
 32 33  1  0
 32 34  1  0
 34 35  2  0
 35 36  1  0
 24  3  1  0
 35 29  1  0
 22  7  1  0
 21 10  1  0
 20 15  1  0
M  END
$$$$
