
     RDKit          3D

 27 29  0  0  0  0  0  0  0  0999 V2000
  -26.6728   42.1445  -22.4640 C   0  0  0  0  0  0  0  0  0  0  0  0
  -25.3270   41.7500  -22.4379 O   0  0  0  0  0  0  0  0  0  0  0  0
  -24.7382   41.0425  -21.4285 N   0  0  0  0  0  0  0  0  0  0  0  0
  -23.4499   40.9115  -21.3946 C   0  0  0  0  0  0  0  0  0  0  0  0
  -22.8853   40.3585  -20.2202 N   0  0  0  0  0  0  0  0  0  0  0  0
  -21.5107   40.4474  -19.8686 C   0  0  0  0  0  0  0  0  0  0  0  0
  -21.0208   40.1865  -18.6463 N   0  0  0  0  0  0  0  0  0  0  0  0
  -19.6668   40.3580  -18.6147 C   0  0  0  0  0  0  0  0  0  0  0  0
  -18.7596   40.2138  -17.6194 N   0  0  0  0  0  0  0  0  0  0  0  0
  -17.4750   40.4673  -17.9271 C   0  0  0  0  0  0  0  0  0  0  0  0
  -17.0822   40.8543  -19.1823 C   0  0  0  0  0  0  0  0  0  0  0  0
  -18.0537   40.9825  -20.1498 C   0  0  0  0  0  0  0  0  0  0  0  0
  -17.7187   41.4009  -21.5433 C   0  0  0  0  0  0  0  0  0  0  0  0
  -17.7358   40.2092  -22.5077 C   0  0  0  0  0  0  0  0  0  0  0  0
  -16.3848   41.8410  -21.5222 O   0  0  0  0  0  0  0  0  0  0  0  0
  -15.8930   42.9938  -20.9707 C   0  0  0  0  0  0  0  0  0  0  0  0
  -14.6786   42.9993  -20.3188 C   0  0  0  0  0  0  0  0  0  0  0  0
  -14.1391   44.1248  -19.7486 C   0  0  0  0  0  0  0  0  0  0  0  0
  -14.8248   45.3192  -19.8174 C   0  0  0  0  0  0  0  0  0  0  0  0
  -14.2182   46.5172  -19.1931 C   0  0  0  0  0  0  0  0  0  0  0  0
  -13.3195   46.1396  -18.0419 C   0  0  0  0  0  0  0  0  0  0  0  0
  -13.5120   47.3426  -20.2292 C   0  0  0  0  0  0  0  0  0  0  0  0
  -15.3232   47.3986  -18.6054 C   0  0  0  0  0  0  0  0  0  0  0  0
  -16.0331   45.3279  -20.4625 C   0  0  0  0  0  0  0  0  0  0  0  0
  -16.5824   44.1755  -21.0446 C   0  0  0  0  0  0  0  0  0  0  0  0
  -19.3450   40.7342  -19.8648 N   0  0  0  0  0  0  0  0  0  0  0  0
  -20.4458   40.7865  -20.6093 N   0  0  0  0  0  0  0  0  0  0  0  0
  1  2  1  0
  2  3  1  0
  3  4  2  0
  4  5  1  0
  5  6  1  0
  6  7  1  0
  7  8  2  0
  8  9  1  0
  9 10  2  0
 10 11  1  0
 11 12  2  0
 12 13  1  0
 13 14  1  0
 13 15  1  0
 15 16  1  0
 16 17  2  0
 17 18  1  0
 18 19  2  0
 19 20  1  0
 20 21  1  0
 20 22  1  0
 20 23  1  0
 19 24  1  0
 24 25  2  0
 12 26  1  0
 26 27  1  0
 27  6  2  0
 26  8  1  0
 25 16  1  0
M  END
$$$$
