
     RDKit          3D

 25 27  0  0  0  0  0  0  0  0999 V2000
  -26.8653   34.7710  -30.1709 C   0  0  0  0  0  0  0  0  0  0  0  0
  -25.5750   35.0962  -29.5395 C   0  0  0  0  0  0  0  0  0  0  0  0
  -25.1970   36.4383  -29.4960 C   0  0  0  0  0  0  0  0  0  0  0  0
  -24.0076   36.8306  -28.9198 C   0  0  0  0  0  0  0  0  0  0  0  0
  -23.1440   35.9106  -28.3632 C   0  0  0  0  0  0  0  0  0  0  0  0
  -21.9424   36.3122  -27.7816 O   0  0  0  0  0  0  0  0  0  0  0  0
  -23.5310   34.5893  -28.4139 C   0  0  0  0  0  0  0  0  0  0  0  0
  -24.7312   34.1692  -28.9926 C   0  0  0  0  0  0  0  0  0  0  0  0
  -25.0118   32.8025  -28.9821 N   0  0  0  0  0  0  0  0  0  0  0  0
  -24.7299   31.8728  -27.9532 C   0  0  0  0  0  0  0  0  0  0  0  0
  -25.7487   31.1400  -27.3980 C   0  0  0  0  0  0  0  0  0  0  0  0
  -25.5289   30.2076  -26.3942 C   0  0  0  0  0  0  0  0  0  0  0  0
  -24.2522   30.0688  -26.0005 N   0  0  0  0  0  0  0  0  0  0  0  0
  -23.2230   30.7546  -26.5049 C   0  0  0  0  0  0  0  0  0  0  0  0
  -21.9002   30.5591  -26.0469 N   0  0  0  0  0  0  0  0  0  0  0  0
  -20.7602   31.2907  -26.3595 C   0  0  0  0  0  0  0  0  0  0  0  0
  -19.6101   30.7387  -26.8319 C   0  0  0  0  0  0  0  0  0  0  0  0
  -18.4630   31.4935  -27.1286 C   0  0  0  0  0  0  0  0  0  0  0  0
  -18.5252   32.8553  -26.9254 C   0  0  0  0  0  0  0  0  0  0  0  0
  -19.6638   33.4708  -26.4488 C   0  0  0  0  0  0  0  0  0  0  0  0
  -19.7174   34.9201  -26.2349 C   0  0  0  0  0  0  0  0  0  0  0  0
  -18.6083   35.7351  -26.5734 N   0  0  0  0  0  0  0  0  0  0  0  0
  -20.7287   35.4854  -25.7526 O   0  0  0  0  0  0  0  0  0  0  0  0
  -20.7570   32.6922  -26.1738 C   0  0  0  0  0  0  0  0  0  0  0  0
  -23.4884   31.6556  -27.4853 N   0  0  0  0  0  0  0  0  0  0  0  0
  1  2  1  0
  2  3  2  0
  3  4  1  0
  4  5  2  0
  5  6  1  0
  5  7  1  0
  7  8  2  0
  8  9  1  0
  9 10  1  0
 10 11  2  0
 11 12  1  0
 12 13  2  0
 13 14  1  0
 14 15  1  0
 15 16  1  0
 16 17  2  0
 17 18  1  0
 18 19  2  0
 19 20  1  0
 20 21  1  0
 21 22  1  0
 21 23  2  0
 20 24  2  0
 14 25  2  0
  8  2  1  0
 25 10  1  0
 24 16  1  0
M  END
$$$$
