
     RDKit          3D

 37 40  0  0  0  0  0  0  0  0999 V2000
  -30.1957   22.1493  -24.3482 C   0  0  0  0  0  0  0  0  0  0  0  0
  -30.2699   20.7457  -24.2233 O   0  0  0  0  0  0  0  0  0  0  0  0
  -28.9717   20.2588  -24.3304 C   0  0  0  0  0  0  0  0  0  0  0  0
  -28.9695   18.7340  -24.3289 C   0  0  0  0  0  0  0  0  0  0  0  0
  -27.6368   18.2309  -24.4701 N   0  0  0  0  0  0  0  0  0  0  0  0
  -27.0287   17.2932  -23.6019 C   0  0  0  0  0  0  0  0  0  0  0  0
  -27.7847   16.4284  -22.8178 C   0  0  0  0  0  0  0  0  0  0  0  0
  -27.2455   15.5207  -21.9544 C   0  0  0  0  0  0  0  0  0  0  0  0
  -27.9689   14.6246  -21.1365 N   0  0  0  0  0  0  0  0  0  0  0  0
  -28.6797   13.4862  -21.5466 C   0  0  0  0  0  0  0  0  0  0  0  0
  -28.1483   12.6732  -22.3053 O   0  0  0  0  0  0  0  0  0  0  0  0
  -30.0305   13.3099  -21.0563 N   0  0  0  0  0  0  0  0  0  0  0  0
  -31.1059   14.2097  -21.4038 C   0  0  0  0  0  0  0  0  0  0  0  0
  -32.4725   13.5864  -21.2084 C   0  0  0  0  0  0  0  0  0  0  0  0
  -32.4338   12.0899  -21.4456 C   0  0  0  0  0  0  0  0  0  0  0  0
  -31.5321   11.5465  -20.3810 C   0  0  0  0  0  0  0  0  0  0  0  0
  -31.8339   10.4901  -19.6036 C   0  0  0  0  0  0  0  0  0  0  0  0
  -30.9031   10.0732  -18.6222 C   0  0  0  0  0  0  0  0  0  0  0  0
  -31.2679    8.8430  -17.9120 C   0  0  0  0  0  0  0  0  0  0  0  0
  -31.6637    7.7553  -18.7315 N   0  0  0  0  0  0  0  0  0  0  0  0
  -32.9187    6.9919  -18.4375 C   0  0  0  0  0  0  0  0  0  0  0  0
  -33.5109    6.6446  -19.7617 C   0  0  0  0  0  0  0  0  0  0  0  0
  -32.6858    5.7369  -20.5348 N   0  0  0  0  0  0  0  0  0  0  0  0
  -33.1522    4.3799  -20.3251 C   0  0  0  0  0  0  0  0  0  0  0  0
  -31.2989    5.7715  -20.1183 C   0  0  0  0  0  0  0  0  0  0  0  0
  -30.9936    7.2402  -19.8556 C   0  0  0  0  0  0  0  0  0  0  0  0
  -30.2325    7.8677  -20.5810 O   0  0  0  0  0  0  0  0  0  0  0  0
  -29.7254   10.7525  -18.4816 C   0  0  0  0  0  0  0  0  0  0  0  0
  -28.7625   10.4438  -17.4398 C   0  0  0  0  0  0  0  0  0  0  0  0
  -27.7535   11.0704  -17.1800 O   0  0  0  0  0  0  0  0  0  0  0  0
  -29.4342   11.8363  -19.2944 N   0  0  0  0  0  0  0  0  0  0  0  0
  -30.3288   12.1929  -20.2018 C   0  0  0  0  0  0  0  0  0  0  0  0
  -25.8940   15.4927  -21.8879 N   0  0  0  0  0  0  0  0  0  0  0  0
  -25.1217   16.3077  -22.6250 C   0  0  0  0  0  0  0  0  0  0  0  0
  -25.6384   17.2341  -23.5046 C   0  0  0  0  0  0  0  0  0  0  0  0
  -24.8467   18.1020  -24.2907 C   0  0  0  0  0  0  0  0  0  0  0  0
  -24.1732   18.8241  -24.9305 N   0  0  0  0  0  0  0  0  0  0  0  0
  1  2  1  0
  2  3  1  0
  3  4  1  0
  4  5  1  0
  5  6  1  0
  6  7  2  0
  7  8  1  0
  8  9  1  0
  9 10  1  0
 10 11  2  0
 10 12  1  0
 12 13  1  0
 13 14  1  0
 14 15  1  0
 15 16  1  0
 16 17  2  0
 17 18  1  0
 18 19  1  0
 19 20  1  0
 20 21  1  0
 21 22  1  0
 22 23  1  0
 23 24  1  0
 23 25  1  0
 25 26  1  0
 26 27  2  0
 18 28  2  0
 28 29  1  0
 29 30  2  0
 28 31  1  0
 31 32  2  0
  8 33  2  0
 33 34  1  0
 34 35  2  0
 35 36  1  0
 36 37  3  0
 35  6  1  0
 32 12  1  0
 32 16  1  0
 26 20  1  0
M  END
$$$$
