
     RDKit          3D

 37 40  0  0  0  0  0  0  0  0999 V2000
  -12.0869   43.3575  -15.5960 C   0  0  0  0  0  0  0  0  0  0  0  0
  -13.2371   43.8379  -16.3066 N   0  0  0  0  0  0  0  0  0  0  0  0
  -14.2596   44.3622  -15.4751 C   0  0  0  0  0  0  0  0  0  0  0  0
  -15.4361   44.9859  -16.0738 C   0  0  0  0  0  0  0  0  0  0  0  0
  -15.3943   44.9619  -17.5786 C   0  0  0  0  0  0  0  0  0  0  0  0
  -16.4211   44.9953  -18.3900 N   0  0  0  0  0  0  0  0  0  0  0  0
  -16.3514   44.9834  -19.6222 C   0  0  0  0  0  0  0  0  0  0  0  0
  -17.2888   45.0100  -20.7425 C   0  0  0  0  0  0  0  0  0  0  0  0
  -17.4550   46.0196  -21.4520 O   0  0  0  0  0  0  0  0  0  0  0  0
  -18.0610   43.8623  -21.0705 N   0  0  0  0  0  0  0  0  0  0  0  0
  -18.7668   43.7495  -22.3298 C   0  0  2  0  0  0  0  0  0  0  0  0
  -19.9007   44.7602  -22.2729 C   0  0  0  0  0  0  0  0  0  0  0  0
  -20.8205   44.4954  -21.1092 C   0  0  1  0  0  0  0  0  0  0  0  0
  -22.0863   45.2257  -21.3433 C   0  0  0  0  0  0  0  0  0  0  0  0
  -22.7935   45.5574  -20.3709 O   0  0  0  0  0  0  0  0  0  0  0  0
  -22.5021   45.5500  -22.6529 N   0  0  0  0  0  0  0  0  0  0  0  0
  -23.1374   44.5529  -23.4735 C   0  0  0  0  0  0  0  0  0  0  0  0
  -22.3152   46.8665  -23.2211 C   0  0  0  0  0  0  0  0  0  0  0  0
  -21.1637   43.0128  -21.0166 C   0  0  0  0  0  0  0  0  0  0  0  0
  -20.7828   42.3982  -22.3510 C   0  0  0  0  0  0  0  0  0  0  0  0
  -19.2951   42.3452  -22.5514 C   0  0  2  0  0  0  0  0  0  0  0  0
  -18.6143   41.4002  -21.7323 N   0  0  0  0  0  0  0  0  0  0  0  0
  -18.0538   40.1917  -22.2361 C   0  0  0  0  0  0  0  0  0  0  0  0
  -16.9807   40.3198  -22.8815 O   0  0  0  0  0  0  0  0  0  0  0  0
  -18.6614   38.8922  -22.0310 C   0  0  0  0  0  0  0  0  0  0  0  0
  -19.8986   38.6876  -22.0507 O   0  0  0  0  0  0  0  0  0  0  0  0
  -17.8230   37.7725  -21.7921 N   0  0  0  0  0  0  0  0  0  0  0  0
  -18.3568   36.4796  -21.6690 C   0  0  0  0  0  0  0  0  0  0  0  0
  -19.6907   36.2293  -21.9331 C   0  0  0  0  0  0  0  0  0  0  0  0
  -20.1740   34.9447  -21.8004 C   0  0  0  0  0  0  0  0  0  0  0  0
  -19.3190   33.9246  -21.4051 C   0  0  0  0  0  0  0  0  0  0  0  0
  -19.9324   32.2959  -21.2368 Cl  0  0  0  0  0  0  0  0  0  0  0  0
  -17.9953   34.1998  -21.1482 C   0  0  0  0  0  0  0  0  0  0  0  0
  -17.5524   35.4595  -21.2857 N   0  0  0  0  0  0  0  0  0  0  0  0
  -14.5059   44.9106  -19.8490 S   0  0  0  0  0  0  0  0  0  0  0  0
  -14.1693   44.9100  -18.1411 C   0  0  0  0  0  0  0  0  0  0  0  0
  -12.8987   44.8518  -17.2946 C   0  0  0  0  0  0  0  0  0  0  0  0
  1  2  1  0
  2  3  1  0
  3  4  1  0
  4  5  1  0
  5  6  1  0
  6  7  2  0
  7  8  1  0
  8  9  2  0
  8 10  1  0
 11 10  1  1
 11 12  1  0
 12 13  1  0
 13 14  1  6
 14 15  2  0
 14 16  1  0
 16 17  1  0
 16 18  1  0
 13 19  1  0
 19 20  1  0
 20 21  1  0
 21 22  1  1
 22 23  1  0
 23 24  2  0
 23 25  1  0
 25 26  2  0
 25 27  1  0
 27 28  1  0
 28 29  2  0
 29 30  1  0
 30 31  2  0
 31 32  1  0
 31 33  1  0
 33 34  2  0
  7 35  1  0
 35 36  1  0
 36 37  1  0
 37  2  1  0
 36  5  2  0
 21 11  1  0
 34 28  1  0
M  END
$$$$
