
     RDKit          3D

 24 26  0  0  0  0  0  0  0  0999 V2000
  -30.3106   12.5773  -20.2944 Cl  0  0  0  0  0  0  0  0  0  0  0  0
  -30.1422   12.1440  -17.8663 O   0  0  0  0  0  0  0  0  0  0  0  0
  -30.7431   11.4744  -19.0017 C   0  0  0  0  0  0  0  0  0  0  0  0
  -30.0547   12.1548  -20.1536 C   0  0  0  0  0  0  0  0  0  0  0  0
  -30.2918   13.6597  -20.1874 C   0  0  0  0  0  0  0  0  0  0  0  0
  -29.6589   14.3542  -21.2120 N   0  0  0  0  0  0  0  0  0  0  0  0
  -28.2649   14.5056  -21.2590 C   0  0  0  0  0  0  0  0  0  0  0  0
  -27.8455   15.8997  -21.7478 C   0  0  0  0  0  0  0  0  0  0  0  0
  -28.4570   16.1857  -23.0928 C   0  0  0  0  0  0  0  0  0  0  0  0
  -29.3097   15.0131  -23.5025 C   0  0  0  0  0  0  0  0  0  0  0  0
  -30.3101   14.6806  -22.4072 C   0  0  0  0  0  0  0  0  0  0  0  0
  -30.1940   10.1020  -18.9333 C   0  0  0  0  0  0  0  0  0  0  0  0
  -30.3304    9.1653  -19.9460 C   0  0  0  0  0  0  0  0  0  0  0  0
  -29.8239    7.8926  -19.8340 C   0  0  0  0  0  0  0  0  0  0  0  0
  -29.1518    7.4876  -18.7011 C   0  0  0  0  0  0  0  0  0  0  0  0
  -28.9959    8.3801  -17.6832 C   0  0  0  0  0  0  0  0  0  0  0  0
  -29.5011    9.6303  -17.8093 C   0  0  0  0  0  0  0  0  0  0  0  0
  -32.1821   11.6027  -18.8622 C   0  0  0  0  0  0  0  0  0  0  0  0
  -33.0976   10.9878  -19.8849 C   0  0  0  0  0  0  0  0  0  0  0  0
  -34.3827   10.9271  -19.0121 C   0  0  0  0  0  0  0  0  0  0  0  0
  -34.5970   12.1811  -18.2695 C   0  0  0  0  0  0  0  0  0  0  0  0
  -33.8096   12.2278  -17.1984 C   0  0  0  0  0  0  0  0  0  0  0  0
  -32.7492   11.2001  -17.5238 C   0  0  0  0  0  0  0  0  0  0  0  0
  -33.7368   10.0765  -17.8913 C   0  0  0  0  0  0  0  0  0  0  0  0
  2  3  1  0
  3  4  1  0
  4  5  1  0
  5  6  1  0
  6  7  1  0
  7  8  1  0
  8  9  1  0
  9 10  1  0
 10 11  1  0
  3 12  1  0
 12 13  2  0
 13 14  1  0
 14 15  2  0
 15 16  1  0
 16 17  2  0
  3 18  1  0
 18 19  1  0
 19 20  1  0
 20 21  1  0
 21 22  2  0
 22 23  1  0
 23 24  1  0
 11  6  1  0
 17 12  1  0
 23 18  1  0
 24 20  1  0
M  END
$$$$
