
     RDKit          3D

 33 36  0  0  0  0  0  0  0  0999 V2000
  -18.3012   49.1839  -24.8152 C   0  0  0  0  0  0  0  0  0  0  0  0
  -18.7518   48.0805  -25.5890 O   0  0  0  0  0  0  0  0  0  0  0  0
  -18.8486   46.8063  -25.0964 C   0  0  0  0  0  0  0  0  0  0  0  0
  -19.2983   46.6473  -23.8068 C   0  0  0  0  0  0  0  0  0  0  0  0
  -19.3957   45.3588  -23.3090 C   0  0  0  0  0  0  0  0  0  0  0  0
  -19.0382   44.3008  -24.1299 C   0  0  0  0  0  0  0  0  0  0  0  0
  -19.1511   42.9131  -23.5714 C   0  0  0  0  0  0  0  0  0  0  0  0
  -18.6209   42.8888  -22.2211 N   0  0  0  0  0  0  0  0  0  0  0  0
  -17.6316   41.9590  -21.8038 C   0  0  0  0  0  0  0  0  0  0  0  0
  -17.3385   41.0312  -22.6012 O   0  0  0  0  0  0  0  0  0  0  0  0
  -16.9654   42.0488  -20.5101 C   0  0  0  0  0  0  0  0  0  0  0  0
  -15.6923   42.5598  -20.4319 C   0  0  0  0  0  0  0  0  0  0  0  0
  -15.0226   42.6658  -19.2315 C   0  0  0  0  0  0  0  0  0  0  0  0
  -13.6759   43.2028  -19.1372 C   0  0  0  0  0  0  0  0  0  0  0  0
  -12.6297   42.5758  -19.7812 C   0  0  0  0  0  0  0  0  0  0  0  0
  -11.3625   43.0548  -19.7113 N   0  0  0  0  0  0  0  0  0  0  0  0
  -11.0738   44.1622  -19.0099 C   0  0  0  0  0  0  0  0  0  0  0  0
  -12.0982   44.8078  -18.3577 C   0  0  0  0  0  0  0  0  0  0  0  0
  -11.8000   46.2502  -17.4286 Cl  0  0  0  0  0  0  0  0  0  0  0  0
  -13.3906   44.3410  -18.4140 C   0  0  0  0  0  0  0  0  0  0  0  0
  -15.6676   42.2412  -18.0929 C   0  0  0  0  0  0  0  0  0  0  0  0
  -16.9045   41.7445  -18.1697 N   0  0  0  0  0  0  0  0  0  0  0  0
  -17.5700   41.6353  -19.3342 C   0  0  0  0  0  0  0  0  0  0  0  0
  -18.9270   41.0802  -19.3570 C   0  0  0  0  0  0  0  0  0  0  0  0
  -19.8378   41.6008  -20.2283 C   0  0  0  0  0  0  0  0  0  0  0  0
  -21.1230   41.0951  -20.2678 C   0  0  0  0  0  0  0  0  0  0  0  0
  -21.3994   40.0674  -19.3939 C   0  0  0  0  0  0  0  0  0  0  0  0
  -20.4545   39.5581  -18.5198 C   0  0  0  0  0  0  0  0  0  0  0  0
  -19.2333   40.0916  -18.5335 N   0  0  0  0  0  0  0  0  0  0  0  0
  -18.6022   44.4930  -25.3872 N   0  0  0  0  0  0  0  0  0  0  0  0
  -18.4967   45.7359  -25.8988 C   0  0  0  0  0  0  0  0  0  0  0  0
  -18.0577   46.0093  -27.1783 O   0  0  0  0  0  0  0  0  0  0  0  0
  -17.3336   45.1530  -28.0084 C   0  0  0  0  0  0  0  0  0  0  0  0
  1  2  1  0
  2  3  1  0
  3  4  2  0
  4  5  1  0
  5  6  2  0
  6  7  1  0
  7  8  1  0
  8  9  1  0
  9 10  2  0
  9 11  1  0
 11 12  2  0
 12 13  1  0
 13 14  1  0
 14 15  2  0
 15 16  1  0
 16 17  2  0
 17 18  1  0
 18 19  1  0
 18 20  2  0
 13 21  2  0
 21 22  1  0
 22 23  2  0
 23 24  1  0
 24 25  2  0
 25 26  1  0
 26 27  2  0
 27 28  1  0
 28 29  2  0
  6 30  1  0
 30 31  2  0
 31 32  1  0
 32 33  1  0
 31  3  1  0
 23 11  1  0
 29 24  1  0
 20 14  1  0
M  END
$$$$
