
     RDKit          3D

 27 29  0  0  0  0  0  0  0  0999 V2000
  -23.0713   41.7193  -26.9354 C   0  0  0  0  0  0  0  0  0  0  0  0
  -22.1012   40.6808  -26.4106 C   0  0  0  0  0  0  0  0  0  0  0  0
  -21.3598   41.2151  -25.3053 O   0  0  0  0  0  0  0  0  0  0  0  0
  -20.3678   40.4839  -24.6769 C   0  0  0  0  0  0  0  0  0  0  0  0
  -20.1376   39.3361  -25.1367 O   0  0  0  0  0  0  0  0  0  0  0  0
  -19.6128   40.9931  -23.5389 C   0  0  0  0  0  0  0  0  0  0  0  0
  -19.1756   40.2072  -22.5085 C   0  0  0  0  0  0  0  0  0  0  0  0
  -18.4587   40.7319  -21.4418 C   0  0  0  0  0  0  0  0  0  0  0  0
  -18.1588   42.0685  -21.3764 C   0  0  0  0  0  0  0  0  0  0  0  0
  -17.4734   42.6755  -20.3783 O   0  0  0  0  0  0  0  0  0  0  0  0
  -16.3310   43.4407  -20.4235 C   0  0  0  0  0  0  0  0  0  0  0  0
  -15.2601   42.8974  -19.5302 C   0  0  0  0  0  0  0  0  0  0  0  0
  -14.5850   43.9271  -18.6603 C   0  0  0  0  0  0  0  0  0  0  0  0
  -15.5610   44.9083  -18.1463 C   0  0  0  0  0  0  0  0  0  0  0  0
  -14.9588   45.9513  -17.2425 C   0  0  0  0  0  0  0  0  0  0  0  0
  -13.7306   45.5276  -16.6247 N   0  0  0  0  0  0  0  0  0  0  0  0
  -13.2327   46.3728  -15.5664 C   0  0  0  0  0  0  0  0  0  0  0  0
  -11.9135   46.3781  -15.1656 C   0  0  0  0  0  0  0  0  0  0  0  0
  -11.4452   47.1960  -14.1482 C   0  0  0  0  0  0  0  0  0  0  0  0
  -12.3325   48.0344  -13.5150 C   0  0  0  0  0  0  0  0  0  0  0  0
  -11.8403   48.9155  -12.4228 C   0  0  0  0  0  0  0  0  0  0  0  0
  -13.6003   48.0084  -13.9226 N   0  0  0  0  0  0  0  0  0  0  0  0
  -14.0462   47.2291  -14.8918 N   0  0  0  0  0  0  0  0  0  0  0  0
  -12.9514   44.3781  -16.9379 C   0  0  0  0  0  0  0  0  0  0  0  0
  -13.7395   43.2925  -17.5843 C   0  0  0  0  0  0  0  0  0  0  0  0
  -18.6095   42.8818  -22.4415 C   0  0  0  0  0  0  0  0  0  0  0  0
  -19.3102   42.3460  -23.4775 C   0  0  0  0  0  0  0  0  0  0  0  0
  1  2  1  0
  2  3  1  0
  3  4  1  0
  4  5  2  0
  4  6  1  0
  6  7  2  0
  7  8  1  0
  8  9  2  0
  9 10  1  0
 10 11  1  0
 11 12  1  0
 12 13  1  0
 13 14  1  0
 14 15  1  0
 15 16  1  0
 16 17  1  0
 17 18  2  0
 18 19  1  0
 19 20  2  0
 20 21  1  0
 20 22  1  0
 22 23  2  0
 16 24  1  0
 24 25  1  0
  9 26  1  0
 26 27  2  0
 27  6  1  0
 25 13  1  0
 23 17  1  0
M  END
$$$$
