
     RDKit          3D

 26 28  0  0  0  0  0  0  0  0999 V2000
  -14.0335   43.7273  -18.4764 C   0  0  0  0  0  0  0  0  0  0  0  0
  -14.8448   44.9650  -18.1322 C   0  0  0  0  0  0  0  0  0  0  0  0
  -13.9927   45.8284  -17.1887 C   0  0  0  0  0  0  0  0  0  0  0  0
  -15.1061   45.6968  -19.3490 N   0  0  0  0  0  0  0  0  0  0  0  0
  -15.9925   45.2959  -20.3771 C   0  0  0  0  0  0  0  0  0  0  0  0
  -16.7969   44.1828  -20.1814 C   0  0  0  0  0  0  0  0  0  0  0  0
  -17.6147   43.8365  -21.2115 C   0  0  0  0  0  0  0  0  0  0  0  0
  -18.5147   42.6357  -21.0871 C   0  0  0  0  0  0  0  0  0  0  0  0
  -18.6202   41.9887  -19.8717 C   0  0  0  0  0  0  0  0  0  0  0  0
  -19.8170   40.6422  -20.3107 S   0  0  0  0  0  0  0  0  0  0  0  0
  -19.9506   41.2102  -22.0607 C   0  0  0  0  0  0  0  0  0  0  0  0
  -20.8080   40.4519  -22.9820 N   0  0  0  0  0  0  0  0  0  0  0  0
  -21.9822   41.0567  -23.5556 C   0  0  0  0  0  0  0  0  0  0  0  0
  -20.4850   39.1202  -23.2947 C   0  0  0  0  0  0  0  0  0  0  0  0
  -21.3170   38.4392  -23.9607 O   0  0  0  0  0  0  0  0  0  0  0  0
  -19.2471   38.4935  -22.8870 C   0  0  0  0  0  0  0  0  0  0  0  0
  -19.3018   37.5222  -21.8881 C   0  0  0  0  0  0  0  0  0  0  0  0
  -18.1412   36.9012  -21.5032 C   0  0  0  0  0  0  0  0  0  0  0  0
  -16.9203   37.2081  -22.0757 C   0  0  0  0  0  0  0  0  0  0  0  0
  -15.8111   36.5492  -21.6513 F   0  0  0  0  0  0  0  0  0  0  0  0
  -16.8597   38.1612  -23.0579 C   0  0  0  0  0  0  0  0  0  0  0  0
  -18.0332   38.7982  -23.4552 C   0  0  0  0  0  0  0  0  0  0  0  0
  -19.2286   42.1342  -22.0528 N   0  0  0  0  0  0  0  0  0  0  0  0
  -17.6183   44.5640  -22.3475 N   0  0  0  0  0  0  0  0  0  0  0  0
  -16.8532   45.6359  -22.5484 C   0  0  0  0  0  0  0  0  0  0  0  0
  -16.0344   45.9959  -21.5431 N   0  0  0  0  0  0  0  0  0  0  0  0
  1  2  1  0
  2  3  1  0
  2  4  1  0
  4  5  1  0
  5  6  2  0
  6  7  1  0
  7  8  1  0
  8  9  2  0
  9 10  1  0
 10 11  1  0
 11 12  1  0
 12 13  1  0
 12 14  1  0
 14 15  2  0
 14 16  1  0
 16 17  2  0
 17 18  1  0
 18 19  2  0
 19 20  1  0
 19 21  1  0
 21 22  2  0
 11 23  2  0
  7 24  2  0
 24 25  1  0
 25 26  2  0
 26  5  1  0
 23  8  1  0
 22 16  1  0
M  END
$$$$
