
     RDKit          3D

 34 38  0  0  0  0  0  0  0  0999 V2000
  -26.1517   39.9651  -26.8321 C   0  0  0  0  0  0  0  0  0  0  0  0
  -25.0996   40.6463  -26.2133 O   0  0  0  0  0  0  0  0  0  0  0  0
  -24.2687   39.9312  -25.3378 C   0  0  0  0  0  0  0  0  0  0  0  0
  -24.2518   40.2014  -23.9830 C   0  0  0  0  0  0  0  0  0  0  0  0
  -23.4386   39.5034  -23.1175 C   0  0  0  0  0  0  0  0  0  0  0  0
  -22.6021   38.5021  -23.5572 C   0  0  0  0  0  0  0  0  0  0  0  0
  -21.7439   37.7498  -22.7171 N   0  0  0  0  0  0  0  0  0  0  0  0
  -21.8966   36.5498  -22.1841 N   0  0  0  0  0  0  0  0  0  0  0  0
  -20.8179   36.2182  -21.4423 C   0  0  0  0  0  0  0  0  0  0  0  0
  -20.6446   34.9688  -20.7111 C   0  0  0  0  0  0  0  0  0  0  0  0
  -21.5163   33.8706  -20.9444 N   0  0  0  0  0  0  0  0  0  0  0  0
  -19.7233   34.8477  -19.8667 O   0  0  0  0  0  0  0  0  0  0  0  0
  -19.9329   37.2653  -21.5087 C   0  0  0  0  0  0  0  0  0  0  0  0
  -20.5329   38.2049  -22.3076 C   0  0  0  0  0  0  0  0  0  0  0  0
  -19.8458   39.4531  -22.5806 C   0  0  0  0  0  0  0  0  0  0  0  0
  -20.3684   40.3389  -23.3110 O   0  0  0  0  0  0  0  0  0  0  0  0
  -18.5630   39.6637  -22.0068 N   0  0  0  0  0  0  0  0  0  0  0  0
  -18.0979   40.9886  -21.7762 C   0  0  0  0  0  0  0  0  0  0  0  0
  -17.0512   41.4596  -22.5416 C   0  0  0  0  0  0  0  0  0  0  0  0
  -16.5681   42.7539  -22.3441 C   0  0  0  0  0  0  0  0  0  0  0  0
  -17.1140   43.5886  -21.3922 C   0  0  0  0  0  0  0  0  0  0  0  0
  -16.6354   44.9071  -21.1781 N   0  0  0  0  0  0  0  0  0  0  0  0
  -16.8986   45.9255  -22.1753 C   0  0  0  0  0  0  0  0  0  0  0  0
  -17.2457   47.2263  -21.5308 C   0  0  0  0  0  0  0  0  0  0  0  0
  -16.2610   47.7076  -20.5207 C   0  0  0  0  0  0  0  0  0  0  0  0
  -15.2838   46.6596  -20.0643 C   0  0  0  0  0  0  0  0  0  0  0  0
  -15.9002   45.3036  -20.0281 C   0  0  0  0  0  0  0  0  0  0  0  0
  -15.8071   44.5215  -19.0687 O   0  0  0  0  0  0  0  0  0  0  0  0
  -18.1591   43.0928  -20.6410 C   0  0  0  0  0  0  0  0  0  0  0  0
  -18.6513   41.8082  -20.8249 C   0  0  0  0  0  0  0  0  0  0  0  0
  -17.7837   38.4903  -21.6816 C   0  0  0  0  0  0  0  0  0  0  0  0
  -18.5958   37.4743  -20.9076 C   0  0  0  0  0  0  0  0  0  0  0  0
  -22.6279   38.2416  -24.9121 C   0  0  0  0  0  0  0  0  0  0  0  0
  -23.4358   38.9312  -25.7898 C   0  0  0  0  0  0  0  0  0  0  0  0
  1  2  1  0
  2  3  1  0
  3  4  2  0
  4  5  1  0
  5  6  2  0
  6  7  1  0
  7  8  1  0
  8  9  2  0
  9 10  1  0
 10 11  1  0
 10 12  2  0
  9 13  1  0
 13 14  2  0
 14 15  1  0
 15 16  2  0
 15 17  1  0
 17 18  1  0
 18 19  2  0
 19 20  1  0
 20 21  2  0
 21 22  1  0
 22 23  1  0
 23 24  1  0
 24 25  1  0
 25 26  1  0
 26 27  1  0
 27 28  2  0
 21 29  1  0
 29 30  2  0
 17 31  1  0
 31 32  1  0
  6 33  1  0
 33 34  2  0
 34  3  1  0
 14  7  1  0
 30 18  1  0
 32 13  1  0
 27 22  1  0
M  END
$$$$
