
     RDKit          3D

 15 15  0  0  0  0  0  0  0  0999 V2000
  -20.8611   33.5698  -23.2506 C   0  0  0  0  0  0  0  0  0  0  0  0
  -21.5377   34.4744  -22.2785 C   0  0  0  0  0  0  0  0  0  0  0  0
  -21.3779   34.0745  -20.9044 N   0  0  0  0  0  0  0  0  0  0  0  0
  -21.5279   35.2684  -20.1397 C   0  0  0  0  0  0  0  0  0  0  0  0
  -21.5878   35.3862  -18.8709 O   0  0  0  0  0  0  0  0  0  0  0  0
  -21.6061   36.3771  -21.0412 N   0  0  0  0  0  0  0  0  0  0  0  0
  -20.9552   35.8689  -22.2603 C   0  0  0  0  0  0  0  0  0  0  0  0
  -19.4743   35.8396  -21.9577 C   0  0  0  0  0  0  0  0  0  0  0  0
  -19.0213   37.1050  -21.2700 C   0  0  0  0  0  0  0  0  0  0  0  0
  -18.5084   38.1556  -22.2011 C   0  0  0  0  0  0  0  0  0  0  0  0
  -18.1259   39.3580  -21.3624 C   0  0  0  0  0  0  0  0  0  0  0  0
  -18.1188   40.6311  -22.1692 C   0  0  0  0  0  0  0  0  0  0  0  0
  -17.2312   40.4850  -23.3517 C   0  0  0  0  0  0  0  0  0  0  0  0
  -17.6596   40.8567  -24.4962 O   0  0  0  0  0  0  0  0  0  0  0  0
  -15.9671   39.9673  -23.2730 O   0  0  0  0  0  0  0  0  0  0  0  0
  1  2  1  0
  2  3  1  0
  3  4  1  0
  4  5  2  0
  4  6  1  0
  6  7  1  0
  7  8  1  0
  8  9  1  0
  9 10  1  0
 10 11  1  0
 11 12  1  0
 12 13  1  0
 13 14  2  0
 13 15  1  0
  7  2  1  0
M  END
$$$$
