
     RDKit          3D

 16 17  0  0  0  0  0  0  0  0999 V2000
  -21.1888   39.1363  -20.4270 C   0  0  0  0  0  0  0  0  0  0  0  0
  -19.6815   39.3341  -20.4363 C   0  0  0  0  0  0  0  0  0  0  0  0
  -19.4422   40.6367  -20.7418 O   0  0  0  0  0  0  0  0  0  0  0  0
  -18.5126   41.5436  -20.4202 C   0  0  0  0  0  0  0  0  0  0  0  0
  -18.0888   41.6514  -19.1059 C   0  0  0  0  0  0  0  0  0  0  0  0
  -18.7547   40.6198  -17.8619 Cl  0  0  0  0  0  0  0  0  0  0  0  0
  -17.1175   42.5875  -18.7277 C   0  0  0  0  0  0  0  0  0  0  0  0
  -16.5550   43.4317  -19.6629 C   0  0  0  0  0  0  0  0  0  0  0  0
  -16.9710   43.3318  -20.9747 C   0  0  0  0  0  0  0  0  0  0  0  0
  -17.9391   42.3928  -21.3292 C   0  0  0  0  0  0  0  0  0  0  0  0
  -18.4456   42.2842  -22.9790 Cl  0  0  0  0  0  0  0  0  0  0  0  0
  -19.1799   38.3581  -21.4525 C   0  0  0  0  0  0  0  0  0  0  0  0
  -19.0166   37.0941  -21.2632 N   0  0  0  0  0  0  0  0  0  0  0  0
  -18.5191   36.4462  -22.4468 C   0  0  0  0  0  0  0  0  0  0  0  0
  -18.4979   37.4870  -23.5325 C   0  0  0  0  0  0  0  0  0  0  0  0
  -18.8081   38.6994  -22.7820 N   0  0  0  0  0  0  0  0  0  0  0  0
  1  2  1  0
  2  3  1  0
  3  4  1  0
  4  5  2  0
  5  6  1  0
  5  7  1  0
  7  8  2  0
  8  9  1  0
  9 10  2  0
 10 11  1  0
  2 12  1  0
 12 13  2  0
 13 14  1  0
 14 15  1  0
 15 16  1  0
 10  4  1  0
 16 12  1  0
M  END
$$$$
