
     RDKit          3D

 35 39  0  0  0  0  0  0  0  0999 V2000
  -26.2750   26.0861  -37.0295 O   0  0  0  0  0  0  0  0  0  0  0  0
  -26.3230   24.9479  -37.5423 C   0  0  0  0  0  0  0  0  0  0  0  0
  -25.1858   24.1479  -37.7753 N   0  0  0  0  0  0  0  0  0  0  0  0
  -24.6332   23.1608  -36.8956 C   0  0  0  0  0  0  0  0  0  0  0  0
  -23.3285   23.4458  -36.2331 C   0  0  0  0  0  0  0  0  0  0  0  0
  -22.2702   23.6431  -37.2094 N   0  0  0  0  0  0  0  0  0  0  0  0
  -22.1628   22.6450  -38.2186 C   0  0  0  0  0  0  0  0  0  0  0  0
  -20.7159   22.7811  -38.7245 C   0  0  0  0  0  0  0  0  0  0  0  0
  -20.6620   23.9934  -39.4614 N   0  0  0  0  0  0  0  0  0  0  0  0
  -19.8436   24.1945  -40.6092 C   0  0  0  0  0  0  0  0  0  0  0  0
  -19.8745   23.2745  -41.6407 C   0  0  0  0  0  0  0  0  0  0  0  0
  -19.0968   23.4392  -42.7638 C   0  0  0  0  0  0  0  0  0  0  0  0
  -18.2697   24.5569  -42.8489 C   0  0  0  0  0  0  0  0  0  0  0  0
  -18.2172   25.4912  -41.8374 C   0  0  0  0  0  0  0  0  0  0  0  0
  -19.0256   25.2796  -40.7168 C   0  0  0  0  0  0  0  0  0  0  0  0
  -21.4787   25.0981  -39.0309 C   0  0  0  0  0  0  0  0  0  0  0  0
  -22.2406   24.9326  -37.7714 C   0  0  0  0  0  0  0  0  0  0  0  0
  -22.9386   22.2679  -35.3180 C   0  0  0  0  0  0  0  0  0  0  0  0
  -22.7391   22.7192  -33.8959 C   0  0  0  0  0  0  0  0  0  0  0  0
  -21.8444   23.7522  -33.7452 O   0  0  0  0  0  0  0  0  0  0  0  0
  -21.8709   24.6918  -34.7795 C   0  0  0  0  0  0  0  0  0  0  0  0
  -23.3323   24.6252  -35.3357 C   0  0  0  0  0  0  0  0  0  0  0  0
  -27.6410   24.4555  -37.9046 C   0  0  0  0  0  0  0  0  0  0  0  0
  -27.7093   23.8077  -39.1413 C   0  0  0  0  0  0  0  0  0  0  0  0
  -28.9045   23.3172  -39.5491 C   0  0  0  0  0  0  0  0  0  0  0  0
  -30.0250   23.4449  -38.7819 C   0  0  0  0  0  0  0  0  0  0  0  0
  -29.9192   24.0819  -37.5842 N   0  0  0  0  0  0  0  0  0  0  0  0
  -28.7584   24.5786  -37.1477 C   0  0  0  0  0  0  0  0  0  0  0  0
  -28.6708   25.3988  -35.5876 S   0  0  0  0  0  0  0  0  0  0  0  0
  -30.2097   25.1191  -34.7179 C   0  0  0  0  0  0  0  0  0  0  0  0
  -31.3731   25.7657  -35.0442 C   0  0  0  0  0  0  0  0  0  0  0  0
  -32.5575   25.5459  -34.3638 C   0  0  0  0  0  0  0  0  0  0  0  0
  -32.5933   24.6499  -33.3171 C   0  0  0  0  0  0  0  0  0  0  0  0
  -31.4292   23.9995  -32.9857 C   0  0  0  0  0  0  0  0  0  0  0  0
  -30.2568   24.2231  -33.6670 C   0  0  0  0  0  0  0  0  0  0  0  0
  1  2  2  0
  2  3  1  0
  3  4  1  0
  4  5  1  0
  5  6  1  0
  6  7  1  0
  7  8  1  0
  8  9  1  0
  9 10  1  0
 10 11  2  0
 11 12  1  0
 12 13  2  0
 13 14  1  0
 14 15  2  0
  9 16  1  0
 16 17  1  0
  5 18  1  0
 18 19  1  0
 19 20  1  0
 20 21  1  0
 21 22  1  0
  2 23  1  0
 23 24  2  0
 24 25  1  0
 25 26  2  0
 26 27  1  0
 27 28  2  0
 28 29  1  0
 29 30  1  0
 30 31  2  0
 31 32  1  0
 32 33  2  0
 33 34  1  0
 34 35  2  0
 22  5  1  0
 28 23  1  0
 35 30  1  0
 17  6  1  0
 15 10  1  0
M  END
$$$$
