
     RDKit          3D

 38 41  0  0  0  0  0  0  0  0999 V2000
  -21.0549   18.6091  -36.9509 C   0  0  0  0  0  0  0  0  0  0  0  0
  -19.6221   18.6718  -37.2613 C   0  0  0  0  0  0  0  0  0  0  0  0
  -18.7359   18.2741  -36.2415 C   0  0  0  0  0  0  0  0  0  0  0  0
  -17.3716   18.2768  -36.3982 C   0  0  0  0  0  0  0  0  0  0  0  0
  -16.4439   17.8926  -35.4327 N   0  0  0  0  0  0  0  0  0  0  0  0
  -16.5814   18.0583  -34.0456 C   0  0  0  0  0  0  0  0  0  0  0  0
  -15.4399   18.1955  -33.2828 N   0  0  0  0  0  0  0  0  0  0  0  0
  -15.4757   18.3577  -31.9609 C   0  0  0  0  0  0  0  0  0  0  0  0
  -16.6677   18.3971  -31.2820 C   0  0  0  0  0  0  0  0  0  0  0  0
  -16.7318   18.6094  -29.5469 Cl  0  0  0  0  0  0  0  0  0  0  0  0
  -17.8353   18.2607  -32.0306 C   0  0  0  0  0  0  0  0  0  0  0  0
  -19.1038   18.2860  -31.4032 N   0  0  0  0  0  0  0  0  0  0  0  0
  -20.3587   18.1829  -32.0600 C   0  0  0  0  0  0  0  0  0  0  0  0
  -20.6091   19.1014  -33.0833 C   0  0  0  0  0  0  0  0  0  0  0  0
  -21.7760   19.0321  -33.7921 C   0  0  0  0  0  0  0  0  0  0  0  0
  -22.7034   18.0566  -33.4963 C   0  0  0  0  0  0  0  0  0  0  0  0
  -22.4750   17.1464  -32.4970 C   0  0  0  0  0  0  0  0  0  0  0  0
  -21.2823   17.1990  -31.7573 C   0  0  0  0  0  0  0  0  0  0  0  0
  -20.9973   15.9793  -30.5543 S   0  0  0  0  0  6  0  0  0  0  0  0
  -19.9643   16.4349  -29.5405 O   0  0  0  0  0  0  0  0  0  0  0  0
  -22.2552   15.5290  -29.9216 O   0  0  0  0  0  0  0  0  0  0  0  0
  -20.2892   14.5427  -31.3502 C   0  0  0  0  0  0  0  0  0  0  0  0
  -20.5623   13.3342  -30.4509 C   0  0  0  0  0  0  0  0  0  0  0  0
  -18.8053   14.6616  -31.5289 C   0  0  0  0  0  0  0  0  0  0  0  0
  -17.7110   18.1018  -33.3524 N   0  0  0  0  0  0  0  0  0  0  0  0
  -16.8815   18.7055  -37.6545 C   0  0  0  0  0  0  0  0  0  0  0  0
  -15.5326   18.7213  -37.8477 O   0  0  0  0  0  0  0  0  0  0  0  0
  -14.7215   18.0099  -38.6993 C   0  0  0  0  0  0  0  0  0  0  0  0
  -14.8007   16.5022  -38.4725 C   0  0  0  0  0  0  0  0  0  0  0  0
  -13.2734   18.4770  -38.6128 C   0  0  0  0  0  0  0  0  0  0  0  0
  -17.7560   19.0886  -38.6341 C   0  0  0  0  0  0  0  0  0  0  0  0
  -19.1208   19.0854  -38.4766 C   0  0  0  0  0  0  0  0  0  0  0  0
  -20.0497   19.4947  -39.5206 C   0  0  0  0  0  0  0  0  0  0  0  0
  -19.4577   20.2012  -40.6902 C   0  0  0  0  0  0  0  0  0  0  0  0
  -20.6222   20.4113  -41.6682 C   0  0  0  0  0  0  0  0  0  0  0  0
  -20.9012   19.1217  -42.2582 N   0  0  0  0  0  0  0  0  0  0  0  0
  -20.4422   18.0201  -41.4569 C   0  0  0  0  0  0  0  0  0  0  0  0
  -20.7952   18.2795  -40.0184 C   0  0  0  0  0  0  0  0  0  0  0  0
  1  2  1  0
  2  3  2  0
  3  4  1  0
  4  5  1  0
  5  6  1  0
  6  7  2  0
  7  8  1  0
  8  9  2  0
  9 10  1  0
  9 11  1  0
 11 12  1  0
 12 13  1  0
 13 14  2  0
 14 15  1  0
 15 16  2  0
 16 17  1  0
 17 18  2  0
 18 19  1  0
 19 20  2  0
 19 21  2  0
 19 22  1  0
 22 23  1  0
 22 24  1  0
 11 25  2  0
  4 26  2  0
 26 27  1  0
 27 28  1  0
 28 29  1  0
 28 30  1  0
 26 31  1  0
 31 32  2  0
 32 33  1  0
 33 34  1  0
 34 35  1  0
 35 36  1  0
 36 37  1  0
 37 38  1  0
 32  2  1  0
 38 33  1  0
 25  6  1  0
 18 13  1  0
M  END
$$$$
