
     RDKit          3D

 16 19  0  0  0  0  0  0  0  0999 V2000
  -24.5444   25.9848  -28.3623 C   0  0  0  0  0  0  0  0  0  0  0  0
  -23.4546   26.7439  -27.9921 C   0  0  0  0  0  0  0  0  0  0  0  0
  -23.5227   28.0953  -27.7528 C   0  0  0  0  0  0  0  0  0  0  0  0
  -22.4091   28.8389  -27.3805 C   0  0  0  0  0  0  0  0  0  0  0  0
  -22.4889   30.1934  -27.1431 C   0  0  0  0  0  0  0  0  0  0  0  0
  -23.7022   30.8598  -27.2717 C   0  0  0  0  0  0  0  0  0  0  0  0
  -23.8145   32.2085  -27.0422 C   0  0  0  0  0  0  0  0  0  0  0  0
  -25.0263   32.8171  -27.1813 C   0  0  0  0  0  0  0  0  0  0  0  0
  -26.1523   32.1287  -27.5459 C   0  0  0  0  0  0  0  0  0  0  0  0
  -26.0162   30.7663  -27.7730 C   0  0  0  0  0  0  0  0  0  0  0  0
  -27.1171   30.0126  -28.1446 C   0  0  0  0  0  0  0  0  0  0  0  0
  -27.0380   28.6617  -28.3815 C   0  0  0  0  0  0  0  0  0  0  0  0
  -25.8357   28.0033  -28.2536 C   0  0  0  0  0  0  0  0  0  0  0  0
  -25.7556   26.6315  -28.4942 C   0  0  0  0  0  0  0  0  0  0  0  0
  -24.7343   28.7486  -27.8835 C   0  0  0  0  0  0  0  0  0  0  0  0
  -24.8039   30.1250  -27.6399 C   0  0  0  0  0  0  0  0  0  0  0  0
  1  2  2  0
  2  3  1  0
  3  4  2  0
  4  5  1  0
  5  6  2  0
  6  7  1  0
  7  8  2  0
  8  9  1  0
  9 10  2  0
 10 11  1  0
 11 12  2  0
 12 13  1  0
 13 14  2  0
 13 15  1  0
 15 16  2  0
 14  1  1  0
 15  3  1  0
 16  6  1  0
 16 10  1  0
M  END
$$$$
