
     RDKit          3D

 20 23  0  0  0  0  0  0  0  0999 V2000
  -21.4063   43.2509  -26.8617 C   0  0  0  0  0  0  0  0  0  0  0  0
  -21.2241   44.3391  -26.0578 C   0  0  0  0  0  0  0  0  0  0  0  0
  -20.9239   44.0797  -24.7065 C   0  0  0  0  0  0  0  0  0  0  0  0
  -20.8371   42.7700  -24.2997 C   0  0  0  0  0  0  0  0  0  0  0  0
  -20.4849   41.9665  -22.7081 S   0  0  0  0  0  0  0  0  0  0  0  0
  -20.6330   40.2383  -23.3505 C   0  0  0  0  0  0  0  0  0  0  0  0
  -20.4153   38.7972  -22.3546 S   0  0  0  0  0  0  0  0  0  0  0  0
  -18.4455   38.7915  -21.5587 S   0  0  0  0  0  0  0  0  0  0  0  0
  -18.0485   40.4757  -21.1454 C   0  0  0  0  0  0  0  0  0  0  0  0
  -17.2295   41.2890  -21.3580 N   0  0  0  0  0  0  0  0  0  0  0  0
  -17.1234   42.5154  -20.9368 C   0  0  0  0  0  0  0  0  0  0  0  0
  -16.1134   43.4633  -21.2209 C   0  0  0  0  0  0  0  0  0  0  0  0
  -16.2070   44.6986  -20.6649 C   0  0  0  0  0  0  0  0  0  0  0  0
  -17.2143   45.1337  -19.8290 C   0  0  0  0  0  0  0  0  0  0  0  0
  -18.2228   44.2027  -19.5391 C   0  0  0  0  0  0  0  0  0  0  0  0
  -18.1243   42.9668  -20.0985 C   0  0  0  0  0  0  0  0  0  0  0  0
  -19.1735   41.4700  -20.0083 S   0  0  0  0  0  0  0  0  0  0  0  0
  -20.8996   40.4966  -24.5510 N   0  0  0  0  0  0  0  0  0  0  0  0
  -21.0176   41.6525  -25.0957 C   0  0  0  0  0  0  0  0  0  0  0  0
  -21.3145   41.9829  -26.4330 C   0  0  0  0  0  0  0  0  0  0  0  0
  1  2  2  0
  2  3  1  0
  3  4  2  0
  4  5  1  0
  5  6  1  0
  6  7  1  0
  7  8  1  0
  8  9  1  0
  9 10  2  0
 10 11  1  0
 11 12  2  0
 12 13  1  0
 13 14  2  0
 14 15  1  0
 15 16  2  0
 16 17  1  0
  6 18  2  0
 18 19  1  0
 19 20  2  0
 20  1  1  0
 19  4  1  0
 17  9  1  0
 16 11  1  0
M  END
$$$$
