
     RDKit          3D

 19 22  0  0  0  0  0  0  0  0999 V2000
  -26.6072   22.8692  -38.9298 N   0  0  0  0  0  0  0  0  0  0  0  0
  -26.9158   23.8379  -37.9410 C   0  0  0  0  0  0  0  0  0  0  0  0
  -25.8613   24.4032  -37.2156 C   0  0  0  0  0  0  0  0  0  0  0  0
  -26.0602   25.3356  -36.2521 C   0  0  0  0  0  0  0  0  0  0  0  0
  -24.9950   25.8621  -35.5664 C   0  0  0  0  0  0  0  0  0  0  0  0
  -23.7062   25.4637  -35.8333 C   0  0  0  0  0  0  0  0  0  0  0  0
  -22.6789   26.0475  -35.0915 C   0  0  0  0  0  0  0  0  0  0  0  0
  -22.9034   26.9944  -34.1157 C   0  0  0  0  0  0  0  0  0  0  0  0
  -24.1788   27.3841  -33.8563 C   0  0  0  0  0  0  0  0  0  0  0  0
  -25.2119   26.8084  -34.5903 C   0  0  0  0  0  0  0  0  0  0  0  0
  -26.4861   27.2073  -34.3211 C   0  0  0  0  0  0  0  0  0  0  0  0
  -27.5998   26.7013  -34.9909 C   0  0  0  0  0  0  0  0  0  0  0  0
  -27.3705   25.7589  -35.9613 C   0  0  0  0  0  0  0  0  0  0  0  0
  -28.4366   25.2083  -36.6727 C   0  0  0  0  0  0  0  0  0  0  0  0
  -29.7281   25.5908  -36.4229 C   0  0  0  0  0  0  0  0  0  0  0  0
  -30.7638   25.0228  -37.1490 C   0  0  0  0  0  0  0  0  0  0  0  0
  -30.5497   24.0858  -38.1155 C   0  0  0  0  0  0  0  0  0  0  0  0
  -29.2553   23.7119  -38.3559 C   0  0  0  0  0  0  0  0  0  0  0  0
  -28.1743   24.2492  -37.6568 C   0  0  0  0  0  0  0  0  0  0  0  0
  1  2  1  0
  2  3  2  0
  3  4  1  0
  4  5  2  0
  5  6  1  0
  6  7  2  0
  7  8  1  0
  8  9  2  0
  9 10  1  0
 10 11  2  0
 11 12  1  0
 12 13  2  0
 13 14  1  0
 14 15  2  0
 15 16  1  0
 16 17  2  0
 17 18  1  0
 18 19  2  0
 19  2  1  0
 13  4  1  0
 19 14  1  0
 10  5  1  0
M  END
$$$$
