
     RDKit          3D

 28 30  0  0  0  0  0  0  0  0999 V2000
  -29.1538   15.5193  -23.4077 O   0  0  0  0  0  0  0  0  0  0  0  0
  -28.8848   14.4838  -22.7630 C   0  0  0  0  0  0  0  0  0  0  0  0
  -29.8568   13.5353  -22.2556 C   0  0  0  0  0  0  0  0  0  0  0  0
  -31.3073   14.0000  -22.2766 C   0  0  0  0  0  0  0  0  0  0  0  0
  -32.2488   12.8691  -22.4466 C   0  0  0  0  0  0  0  0  0  0  0  0
  -32.7620   12.0578  -20.9408 S   0  0  0  0  0  0  0  0  0  0  0  0
  -31.4129   11.2361  -20.1586 C   0  0  0  0  0  0  0  0  0  0  0  0
  -30.6183   10.2782  -20.6960 C   0  0  0  0  0  0  0  0  0  0  0  0
  -29.5613    9.6759  -20.0391 C   0  0  0  0  0  0  0  0  0  0  0  0
  -29.2991   10.0790  -18.7462 C   0  0  0  0  0  0  0  0  0  0  0  0
  -30.0755   11.0510  -18.1458 C   0  0  0  0  0  0  0  0  0  0  0  0
  -31.1178   11.6197  -18.8459 C   0  0  0  0  0  0  0  0  0  0  0  0
  -31.4566   15.0740  -23.2626 C   0  0  0  0  0  0  0  0  0  0  0  0
  -31.2911   16.2713  -22.8736 O   0  0  0  0  0  0  0  0  0  0  0  0
  -31.7666   14.9006  -24.6014 O   0  0  0  0  0  0  0  0  0  0  0  0
  -27.4709   14.2160  -22.5041 C   0  0  0  0  0  0  0  0  0  0  0  0
  -26.6874   15.1194  -21.8182 C   0  0  0  0  0  0  0  0  0  0  0  0
  -25.3538   14.8611  -21.5755 C   0  0  0  0  0  0  0  0  0  0  0  0
  -24.7348   13.7033  -21.9973 C   0  0  0  0  0  0  0  0  0  0  0  0
  -23.3272   13.4165  -21.7489 C   0  0  0  0  0  0  0  0  0  0  0  0
  -22.9014   12.1628  -21.3637 C   0  0  0  0  0  0  0  0  0  0  0  0
  -21.5551   11.9064  -21.1327 C   0  0  0  0  0  0  0  0  0  0  0  0
  -20.5934   12.8856  -21.2771 C   0  0  0  0  0  0  0  0  0  0  0  0
  -18.8901   12.5488  -20.9815 Cl  0  0  0  0  0  0  0  0  0  0  0  0
  -21.0210   14.1384  -21.6622 C   0  0  0  0  0  0  0  0  0  0  0  0
  -22.3566   14.3927  -21.8913 C   0  0  0  0  0  0  0  0  0  0  0  0
  -25.5316   12.7992  -22.6873 C   0  0  0  0  0  0  0  0  0  0  0  0
  -26.8645   13.0548  -22.9314 C   0  0  0  0  0  0  0  0  0  0  0  0
  1  2  2  0
  2  3  1  0
  3  4  1  0
  4  5  1  0
  5  6  1  0
  6  7  1  0
  7  8  2  0
  8  9  1  0
  9 10  2  0
 10 11  1  0
 11 12  2  0
  4 13  1  0
 13 14  2  0
 13 15  1  0
  2 16  1  0
 16 17  2  0
 17 18  1  0
 18 19  2  0
 19 20  1  0
 20 21  2  0
 21 22  1  0
 22 23  2  0
 23 24  1  0
 23 25  1  0
 25 26  2  0
 19 27  1  0
 27 28  2  0
 12  7  1  0
 28 16  1  0
 26 20  1  0
M  END
$$$$
