
     RDKit          3D

 11 10  0  0  0  0  0  0  0  0999 V2000
  -20.1716   37.1020  -22.9495 C   0  0  0  0  0  0  0  0  0  0  0  0
  -19.2082   35.9206  -22.9190 C   0  0  0  0  0  0  0  0  0  0  0  0
  -18.3747   36.0578  -24.0215 O   0  0  0  0  0  0  0  0  0  0  0  0
  -19.9672   34.6236  -23.0326 C   0  0  0  0  0  0  0  0  0  0  0  0
  -20.5780   34.1787  -21.7627 C   0  0  0  0  0  0  0  0  0  0  0  0
  -20.1586   33.3017  -21.0031 O   0  0  0  0  0  0  0  0  0  0  0  0
  -21.7692   34.8189  -21.3621 O   0  0  0  0  0  0  0  0  0  0  0  0
  -18.3640   36.0066  -21.6556 C   0  0  0  0  0  0  0  0  0  0  0  0
  -17.5593   37.2382  -21.6185 C   0  0  0  0  0  0  0  0  0  0  0  0
  -17.2890   37.7759  -20.5303 O   0  0  0  0  0  0  0  0  0  0  0  0
  -17.1003   37.8017  -22.7829 O   0  0  0  0  0  0  0  0  0  0  0  0
  1  2  1  0
  2  3  1  0
  2  4  1  0
  4  5  1  0
  5  6  2  0
  5  7  1  0
  2  8  1  0
  8  9  1  0
  9 10  2  0
  9 11  1  0
M  END
$$$$
