
     RDKit          3D

 28 31  0  0  0  0  0  0  0  0999 V2000
  -23.9528   18.1566  -35.3374 C   0  0  0  0  0  0  0  0  0  0  0  0
  -22.6680   18.6418  -35.7111 N   0  0  0  0  0  0  0  0  0  0  0  0
  -22.6585   19.1688  -37.1004 C   0  0  0  0  0  0  0  0  0  0  0  0
  -21.2105   19.3446  -37.4357 C   0  0  0  0  0  0  0  0  0  0  0  0
  -20.4685   20.3014  -37.8740 C   0  0  0  0  0  0  0  0  0  0  0  0
  -18.9996   20.4347  -38.1982 C   0  0  0  0  0  0  0  0  0  0  0  0
  -18.5634   19.7742  -39.4570 C   0  0  0  0  0  0  0  0  0  0  0  0
  -17.3704   19.0126  -39.3026 O   0  0  0  0  0  0  0  0  0  0  0  0
  -16.6155   18.6963  -38.1847 C   0  0  0  0  0  0  0  0  0  0  0  0
  -15.3151   19.2012  -38.2662 C   0  0  0  0  0  0  0  0  0  0  0  0
  -14.3680   19.0327  -37.2865 C   0  0  0  0  0  0  0  0  0  0  0  0
  -14.7944   18.3184  -36.1951 C   0  0  0  0  0  0  0  0  0  0  0  0
  -16.0912   17.7852  -36.0575 C   0  0  0  0  0  0  0  0  0  0  0  0
  -16.9971   17.9762  -37.0608 C   0  0  0  0  0  0  0  0  0  0  0  0
  -16.2314   17.1166  -34.7387 C   0  0  0  0  0  0  0  0  0  0  0  0
  -15.1883   16.3410  -34.1870 C   0  0  0  0  0  0  0  0  0  0  0  0
  -15.2854   15.7295  -32.9699 C   0  0  0  0  0  0  0  0  0  0  0  0
  -16.4138   15.8650  -32.2621 N   0  0  0  0  0  0  0  0  0  0  0  0
  -17.4278   16.5803  -32.7271 C   0  0  0  0  0  0  0  0  0  0  0  0
  -17.2789   17.1578  -33.9237 N   0  0  0  0  0  0  0  0  0  0  0  0
  -18.6707   16.7476  -32.0369 N   0  0  0  0  0  0  0  0  0  0  0  0
  -19.7665   17.6185  -32.3885 C   0  0  0  0  0  0  0  0  0  0  0  0
  -20.3441   18.1141  -31.1936 C   0  0  0  0  0  0  0  0  0  0  0  0
  -21.3970   18.9878  -31.1758 C   0  0  0  0  0  0  0  0  0  0  0  0
  -21.8626   19.3576  -32.4041 C   0  0  0  0  0  0  0  0  0  0  0  0
  -21.3165   18.8872  -33.6272 C   0  0  0  0  0  0  0  0  0  0  0  0
  -20.2567   18.0062  -33.6191 C   0  0  0  0  0  0  0  0  0  0  0  0
  -22.0372   19.5091  -34.7817 C   0  0  0  0  0  0  0  0  0  0  0  0
  1  2  1  0
  2  3  1  0
  3  4  1  0
  4  5  2  0
  5  6  1  0
  6  7  1  0
  7  8  1  0
  8  9  1  0
  9 10  1  0
 10 11  2  0
 11 12  1  0
 12 13  2  0
 13 14  1  0
 13 15  1  0
 15 16  1  0
 16 17  2  0
 17 18  1  0
 18 19  2  0
 19 20  1  0
 19 21  1  0
 21 22  1  0
 22 23  1  0
 23 24  2  0
 24 25  1  0
 25 26  2  0
 26 27  1  0
 26 28  1  0
 28  2  1  0
 14  9  2  0
 20 15  2  0
 27 22  2  0
M  END
$$$$
