
     RDKit          3D

  9  9  0  0  0  0  0  0  0  0999 V2000
  -17.4786   36.3003  -21.3412 O   0  0  0  0  0  0  0  0  0  0  0  0
  -18.6674   36.5655  -21.5677 C   0  0  0  0  0  0  0  0  0  0  0  0
  -19.0893   37.8954  -21.5204 C   0  0  0  0  0  0  0  0  0  0  0  0
  -20.3442   38.4204  -21.7241 C   0  0  0  0  0  0  0  0  0  0  0  0
  -21.5460   37.7501  -21.7732 C   0  0  0  0  0  0  0  0  0  0  0  0
  -21.7490   36.3763  -21.6008 C   0  0  0  0  0  0  0  0  0  0  0  0
  -20.8372   35.3286  -21.7073 C   0  0  0  0  0  0  0  0  0  0  0  0
  -19.4528   35.4638  -21.8492 C   0  0  0  0  0  0  0  0  0  0  0  0
  -18.8111   34.3242  -22.3396 O   0  0  0  0  0  0  0  0  0  0  0  0
  1  2  2  0
  2  3  1  0
  3  4  2  0
  4  5  1  0
  5  6  2  0
  6  7  1  0
  7  8  2  0
  8  9  1  0
  8  2  1  0
M  END
$$$$
