
     RDKit          3D

 21 22  0  0  0  0  0  0  0  0999 V2000
  -18.1773   35.5354  -22.7872 C   0  0  0  0  0  0  0  0  0  0  0  0
  -18.9320   35.9492  -21.5410 C   0  0  0  0  0  0  0  0  0  0  0  0
  -19.4072   34.7294  -20.8075 C   0  0  0  0  0  0  0  0  0  0  0  0
  -20.7574   34.3172  -21.2655 C   0  0  0  0  0  0  0  0  0  0  0  0
  -21.0201   33.1026  -21.3921 O   0  0  0  0  0  0  0  0  0  0  0  0
  -21.6768   35.3737  -21.5332 N   0  0  0  0  0  0  0  0  0  0  0  0
  -21.1936   36.6454  -21.7859 N   0  0  0  0  0  0  0  0  0  0  0  0
  -19.9607   36.9662  -21.8022 C   0  0  0  0  0  0  0  0  0  0  0  0
  -19.6342   38.3617  -22.0850 C   0  0  0  0  0  0  0  0  0  0  0  0
  -20.5802   39.3411  -21.9027 C   0  0  0  0  0  0  0  0  0  0  0  0
  -20.3299   40.6734  -22.1518 C   0  0  0  0  0  0  0  0  0  0  0  0
  -19.1065   41.0956  -22.6017 C   0  0  0  0  0  0  0  0  0  0  0  0
  -18.8790   42.4806  -22.7786 N   0  0  0  0  0  0  0  0  0  0  0  0
  -19.7451   43.5543  -22.4144 C   0  0  0  0  0  0  0  0  0  0  0  0
  -19.5488   44.0422  -21.0068 C   0  0  0  0  0  0  0  0  0  0  0  0
  -20.6948   44.4991  -20.4357 O   0  0  0  0  0  0  0  0  0  0  0  0
  -18.1317   40.1478  -22.7980 C   0  0  0  0  0  0  0  0  0  0  0  0
  -16.8405   40.4532  -23.2558 N   0  0  0  0  0  4  0  0  0  0  0  0
  -15.9832   39.5903  -23.4039 O   0  0  0  0  0  0  0  0  0  0  0  0
  -16.5275   41.7654  -23.5142 O   0  0  0  0  0  1  0  0  0  0  0  0
  -18.4071   38.7876  -22.5362 C   0  0  0  0  0  0  0  0  0  0  0  0
  1  2  1  0
  2  3  1  0
  3  4  1  0
  4  5  2  0
  4  6  1  0
  6  7  1  0
  7  8  2  0
  8  9  1  0
  9 10  2  0
 10 11  1  0
 11 12  2  0
 12 13  1  0
 13 14  1  0
 14 15  1  0
 15 16  1  0
 12 17  1  0
 17 18  1  0
 18 19  2  0
 18 20  1  0
 17 21  2  0
  8  2  1  0
 21  9  1  0
M  CHG  2  18   1  20  -1
M  END
$$$$
