
     RDKit          3D

 16 17  0  0  0  0  0  0  0  0999 V2000
  -19.0082   30.4905  -23.0383 C   0  0  0  0  0  0  0  0  0  0  0  0
  -19.0935   31.3921  -21.9740 O   0  0  0  0  0  0  0  0  0  0  0  0
  -19.3106   32.7477  -22.1044 C   0  0  0  0  0  0  0  0  0  0  0  0
  -18.7968   33.5577  -23.0834 C   0  0  0  0  0  0  0  0  0  0  0  0
  -19.0729   34.9303  -23.1370 C   0  0  0  0  0  0  0  0  0  0  0  0
  -19.8835   35.5085  -22.1872 C   0  0  0  0  0  0  0  0  0  0  0  0
  -20.1694   36.9296  -22.2392 C   0  0  0  0  0  0  0  0  0  0  0  0
  -21.3497   37.3102  -22.5435 O   0  0  0  0  0  0  0  0  0  0  0  0
  -19.1685   37.9156  -21.9602 N   0  0  0  0  0  0  0  0  0  0  0  0
  -19.1826   39.2532  -22.4809 C   0  0  0  0  0  0  0  0  0  0  0  0
  -18.2122   40.0687  -21.6947 C   0  0  0  0  0  0  0  0  0  0  0  0
  -17.1603   39.0218  -21.3058 C   0  0  0  0  0  0  0  0  0  0  0  0
  -18.0109   37.7854  -21.1534 C   0  0  0  0  0  0  0  0  0  0  0  0
  -17.7093   36.8171  -20.4212 O   0  0  0  0  0  0  0  0  0  0  0  0
  -20.3895   34.6805  -21.2140 C   0  0  0  0  0  0  0  0  0  0  0  0
  -20.1325   33.3408  -21.1447 C   0  0  0  0  0  0  0  0  0  0  0  0
  1  2  1  0
  2  3  1  0
  3  4  2  0
  4  5  1  0
  5  6  2  0
  6  7  1  0
  7  8  2  0
  7  9  1  0
  9 10  1  0
 10 11  1  0
 11 12  1  0
 12 13  1  0
 13 14  2  0
  6 15  1  0
 15 16  2  0
 16  3  1  0
 13  9  1  0
M  END
$$$$
