
     RDKit          3D

 26 29  0  0  0  0  0  0  0  0999 V2000
  -21.2634   36.7056  -20.9240 C   0  0  0  0  0  0  0  0  0  0  0  0
  -20.5381   37.2012  -22.1342 C   0  0  0  0  0  0  0  0  0  0  0  0
  -21.3975   38.5773  -22.8601 S   0  0  0  0  0  6  0  0  0  0  0  0
  -21.2027   38.4519  -24.3645 O   0  0  0  0  0  0  0  0  0  0  0  0
  -22.8597   38.5319  -22.5337 O   0  0  0  0  0  0  0  0  0  0  0  0
  -20.6695   40.0232  -22.2612 N   0  0  0  0  0  0  0  0  0  0  0  0
  -19.3777   39.8347  -21.6542 C   0  0  0  0  0  0  0  0  0  0  0  0
  -18.7599   40.7578  -22.6523 C   0  0  0  0  0  0  0  0  0  0  0  0
  -17.7986   40.1241  -23.6364 C   0  0  0  0  0  0  0  0  0  0  0  0
  -17.0145   39.1362  -22.9299 C   0  0  0  0  0  0  0  0  0  0  0  0
  -16.3756   38.3543  -22.3621 N   0  0  0  0  0  0  0  0  0  0  0  0
  -18.1894   41.9756  -22.0994 N   0  0  0  0  0  0  0  0  0  0  0  0
  -17.4921   42.1184  -20.9465 C   0  0  0  0  0  0  0  0  0  0  0  0
  -17.1315   43.4472  -20.7958 C   0  0  0  0  0  0  0  0  0  0  0  0
  -16.3773   44.0467  -19.6963 C   0  0  0  0  0  0  0  0  0  0  0  0
  -16.9645   44.6953  -18.6840 N   0  0  0  0  0  0  0  0  0  0  0  0
  -16.2895   45.2515  -17.6630 C   0  0  0  0  0  0  0  0  0  0  0  0
  -14.9491   45.1469  -17.6648 N   0  0  0  0  0  0  0  0  0  0  0  0
  -14.2924   44.5086  -18.6505 C   0  0  0  0  0  0  0  0  0  0  0  0
  -12.9868   44.2544  -18.9044 N   0  0  0  0  0  0  0  0  0  0  0  0
  -12.8444   43.5626  -20.0443 C   0  0  0  0  0  0  0  0  0  0  0  0
  -14.1129   43.3593  -20.5518 C   0  0  0  0  0  0  0  0  0  0  0  0
  -15.0016   43.9490  -19.6815 C   0  0  0  0  0  0  0  0  0  0  0  0
  -17.6390   44.0935  -21.9010 C   0  0  0  0  0  0  0  0  0  0  0  0
  -18.2564   43.1662  -22.6377 N   0  0  0  0  0  0  0  0  0  0  0  0
  -20.1330   40.9077  -23.2497 C   0  0  0  0  0  0  0  0  0  0  0  0
  1  2  1  0
  2  3  1  0
  3  4  2  0
  3  5  2  0
  3  6  1  0
  6  7  1  0
  7  8  1  0
  8  9  1  0
  9 10  1  0
 10 11  3  0
  8 12  1  0
 12 13  1  0
 13 14  2  0
 14 15  1  0
 15 16  2  0
 16 17  1  0
 17 18  2  0
 18 19  1  0
 19 20  1  0
 20 21  1  0
 21 22  2  0
 22 23  1  0
 14 24  1  0
 24 25  2  0
  8 26  1  0
 26  6  1  0
 25 12  1  0
 23 15  1  0
 23 19  2  0
M  END
$$$$
