
     RDKit          3D

 30 35  0  0  0  0  0  0  0  0999 V2000
  -23.4014   38.2401  -21.5683 C   0  0  0  0  0  0  0  0  0  0  0  0
  -22.1131   39.0592  -21.5356 C   0  0  0  0  0  0  0  0  0  0  0  0
  -21.2089   38.3925  -20.5246 C   0  0  0  0  0  0  0  0  0  0  0  0
  -19.7677   38.5052  -21.0386 C   0  0  0  0  0  0  0  0  0  0  0  0
  -19.6193   39.8170  -21.7513 C   0  0  1  0  0  0  0  0  0  0  0  0
  -20.2698   39.6902  -23.0403 N   0  0  0  0  0  0  0  0  0  0  0  0
  -21.5319   39.0011  -22.9365 C   0  0  0  0  0  0  0  0  0  0  0  0
  -20.0813   40.9053  -21.0317 O   0  0  0  0  0  0  0  0  0  0  0  0
  -19.5609   42.0138  -21.6398 C   0  0  1  0  0  0  0  0  0  0  0  0
  -19.4681   43.2296  -20.7150 C   0  0  0  0  0  0  0  0  0  0  0  0
  -18.0396   43.5985  -20.8639 C   0  0  1  0  0  0  0  0  0  0  0  0
  -17.4883   44.6253  -19.9414 C   0  0  2  0  0  0  0  0  0  0  0  0
  -17.4253   45.9153  -20.7260 C   0  0  0  0  0  0  0  0  0  0  0  0
  -16.4726   46.8929  -20.1560 C   0  0  0  0  0  0  0  0  0  0  0  0
  -15.5568   46.6508  -19.2441 C   0  0  0  0  0  0  0  0  0  0  0  0
  -14.6207   47.7120  -18.7144 C   0  0  0  0  0  0  0  0  0  0  0  0
  -14.8838   47.7872  -17.2451 C   0  0  0  0  0  0  0  0  0  0  0  0
  -13.8526   48.5285  -16.6669 O   0  0  0  0  0  0  0  0  0  0  0  0
  -14.9848   46.4920  -16.5293 C   0  0  0  0  0  0  0  0  0  0  0  0
  -15.7754   45.4148  -17.2056 C   0  0  0  0  0  0  0  0  0  0  0  0
  -15.3992   45.3170  -18.6793 C   0  0  0  0  0  0  0  0  0  0  0  0
  -13.9274   44.9141  -18.6822 C   0  0  0  0  0  0  0  0  0  0  0  0
  -16.1708   44.2391  -19.3480 C   0  0  0  0  0  0  0  0  0  0  0  0
  -15.2762   43.5106  -20.3102 C   0  0  0  0  0  0  0  0  0  0  0  0
  -15.9342   42.4352  -21.0866 C   0  0  0  0  0  0  0  0  0  0  0  0
  -17.3794   42.2350  -20.7928 C   0  0  0  0  0  0  0  0  0  0  0  0
  -17.6594   41.5050  -19.5036 C   0  0  0  0  0  0  0  0  0  0  0  0
  -18.1287   41.6059  -21.9577 C   0  0  1  0  0  0  0  0  0  0  0  0
  -18.1518   40.1315  -21.9804 C   0  0  2  0  0  0  0  0  0  0  0  0
  -17.7810   39.6891  -23.4039 C   0  0  0  0  0  0  0  0  0  0  0  0
  1  2  1  0
  2  3  1  0
  3  4  1  0
  5  4  1  1
  5  6  1  0
  6  7  1  0
  5  8  1  0
  8  9  1  0
  9 10  1  1
 11 10  1  1
 11 12  1  0
 12 13  1  6
 13 14  1  0
 14 15  2  0
 15 16  1  0
 16 17  1  0
 17 18  1  0
 17 19  1  0
 19 20  1  0
 20 21  1  0
 21 22  1  0
 21 23  1  0
 23 24  1  0
 24 25  1  0
 25 26  1  0
 26 27  1  0
 28 26  1  1
 28 29  1  0
 29 30  1  6
  7  2  1  0
 28  9  1  0
 29  5  1  0
 26 11  1  0
 23 12  1  0
 21 15  1  0
M  END
$$$$
