
     RDKit          3D

 10  9  0  0  0  0  0  0  0  0999 V2000
  -19.1888   34.2916  -25.7394 C   0  0  0  0  0  0  0  0  0  0  0  0
  -19.4940   35.3139  -24.7339 C   0  0  0  0  0  0  0  0  0  0  0  0
  -20.3752   36.1908  -24.8472 O   0  0  0  0  0  0  0  0  0  0  0  0
  -18.7322   35.3203  -23.5239 N   0  0  0  0  0  0  0  0  0  0  0  0
  -18.9098   36.2960  -22.4826 C   0  0  1  0  0  0  0  0  0  0  0  0
  -19.0048   35.5303  -21.1680 C   0  0  0  0  0  0  0  0  0  0  0  0
  -20.5112   34.4871  -21.1676 S   0  0  0  0  0  0  0  0  0  0  0  0
  -17.8983   37.3376  -22.4572 C   0  0  0  0  0  0  0  0  0  0  0  0
  -16.6893   37.0675  -22.6298 O   0  0  0  0  0  0  0  0  0  0  0  0
  -18.2392   38.6580  -22.2418 O   0  0  0  0  0  0  0  0  0  0  0  0
  1  2  1  0
  2  3  2  0
  2  4  1  0
  4  5  1  0
  5  6  1  1
  6  7  1  0
  5  8  1  0
  8  9  2  0
  8 10  1  0
M  END
$$$$
