
     RDKit          3D

 31 32  0  0  0  0  0  0  0  0999 V2000
  -22.9162   43.8140  -22.5838 C   0  0  0  0  0  0  0  0  0  0  0  0
  -21.6957   43.1897  -23.2212 C   0  0  0  0  0  0  0  0  0  0  0  0
  -21.5123   43.8139  -24.5948 C   0  0  0  0  0  0  0  0  0  0  0  0
  -20.5069   43.3108  -22.4173 N   0  0  0  0  0  0  0  0  0  0  0  0
  -19.6267   42.3300  -22.0505 C   0  0  0  0  0  0  0  0  0  0  0  0
  -19.7986   40.9629  -22.4730 C   0  0  0  0  0  0  0  0  0  0  0  0
  -19.0299   39.9353  -22.1848 C   0  0  0  0  0  0  0  0  0  0  0  0
  -19.3463   38.5477  -22.7099 C   0  0  1  0  0  0  0  0  0  0  0  0
  -18.0959   37.9995  -23.0211 O   0  0  0  0  0  0  0  0  0  0  0  0
  -20.0114   37.7179  -21.6720 C   0  0  0  0  0  0  0  0  0  0  0  0
  -20.3331   36.3602  -22.2192 C   0  0  1  0  0  0  0  0  0  0  0  0
  -21.2000   36.4559  -23.3329 O   0  0  0  0  0  0  0  0  0  0  0  0
  -19.1751   35.5359  -22.6691 C   0  0  0  0  0  0  0  0  0  0  0  0
  -18.2504   35.2986  -21.5385 C   0  0  0  0  0  0  0  0  0  0  0  0
  -17.1507   34.7198  -21.8685 O   0  0  0  0  0  0  0  0  0  0  0  0
  -18.4777   35.6364  -20.2288 O   0  0  0  0  0  1  0  0  0  0  0  0
  -18.6501   42.8871  -21.2885 C   0  0  0  0  0  0  0  0  0  0  0  0
  -17.4902   42.2612  -20.6572 C   0  0  0  0  0  0  0  0  0  0  0  0
  -17.5832   41.7603  -19.3650 C   0  0  0  0  0  0  0  0  0  0  0  0
  -16.5019   41.1823  -18.7353 C   0  0  0  0  0  0  0  0  0  0  0  0
  -15.2671   41.0760  -19.3709 C   0  0  0  0  0  0  0  0  0  0  0  0
  -14.2261   40.5038  -18.7254 F   0  0  0  0  0  0  0  0  0  0  0  0
  -15.1722   41.5716  -20.6524 C   0  0  0  0  0  0  0  0  0  0  0  0
  -16.2573   42.1479  -21.2746 C   0  0  0  0  0  0  0  0  0  0  0  0
  -18.9593   44.2509  -21.1984 C   0  0  0  0  0  0  0  0  0  0  0  0
  -18.2839   45.2400  -20.5448 C   0  0  0  0  0  0  0  0  0  0  0  0
  -18.7812   46.5404  -20.5952 C   0  0  0  0  0  0  0  0  0  0  0  0
  -19.9374   46.7877  -21.3023 C   0  0  0  0  0  0  0  0  0  0  0  0
  -20.6185   45.7879  -21.9617 C   0  0  0  0  0  0  0  0  0  0  0  0
  -20.1136   44.4905  -21.9053 C   0  0  0  0  0  0  0  0  0  0  0  0
  -19.3072   41.2197  -21.7955 Na  0  0  0  0  0 15  0  0  0  0  0  0
  1  2  1  0
  2  3  1  0
  2  4  1  0
  4  5  1  0
  5  6  1  0
  6  7  2  0
  7  8  1  0
  8  9  1  1
  8 10  1  0
 10 11  1  0
 11 12  1  6
 11 13  1  0
 13 14  1  0
 14 15  2  0
 14 16  1  0
  5 17  2  0
 17 18  1  0
 18 19  2  0
 19 20  1  0
 20 21  2  0
 21 22  1  0
 21 23  1  0
 23 24  2  0
 17 25  1  0
 25 26  2  0
 26 27  1  0
 27 28  2  0
 28 29  1  0
 29 30  2  0
 30  4  1  0
 24 18  1  0
 30 25  1  0
M  CHG  2  16  -1  31   1
M  END
$$$$
