
     RDKit          3D

 41 45  0  0  0  0  0  0  0  0999 V2000
  -14.7348   41.8811  -20.3097 O   0  0  0  0  0  0  0  0  0  0  0  0
  -15.1857   42.8825  -19.6608 C   0  0  0  0  0  0  0  0  0  0  0  0
  -16.5051   43.2608  -19.9517 N   0  0  0  0  0  0  0  0  0  0  0  0
  -17.3947   42.5045  -20.8001 C   0  0  0  0  0  0  0  0  0  0  0  0
  -18.0858   41.4700  -19.9968 C   0  0  0  0  0  0  0  0  0  0  0  0
  -17.8149   41.3982  -18.7691 O   0  0  0  0  0  0  0  0  0  0  0  0
  -19.0256   40.5695  -20.5404 N   0  0  0  0  0  0  0  0  0  0  0  0
  -19.7112   39.5113  -19.8492 C   0  0  0  0  0  0  0  0  0  0  0  0
  -19.6664   38.3896  -20.8963 C   0  0  0  0  0  0  0  0  0  0  0  0
  -20.0916   39.1561  -22.1288 C   0  0  2  0  0  0  0  0  0  0  0  0
  -19.5294   38.6350  -23.3338 N   0  0  0  0  0  0  0  0  0  0  0  0
  -20.5177   37.9278  -24.1640 C   0  0  1  0  0  0  0  0  0  0  0  0
  -21.4179   37.0806  -23.3510 C   0  0  0  0  0  0  0  0  0  0  0  0
  -22.8712   37.3260  -23.4374 C   0  0  0  0  0  0  0  0  0  0  0  0
  -23.3127   37.8966  -24.7655 C   0  0  1  0  0  0  0  0  0  0  0  0
  -22.9110   37.0789  -25.8112 O   0  0  0  0  0  0  0  0  0  0  0  0
  -24.7686   38.0825  -24.7932 C   0  0  0  0  0  0  0  0  0  0  0  0
  -25.4092   39.1520  -24.1931 C   0  0  0  0  0  0  0  0  0  0  0  0
  -26.7813   39.3178  -24.2253 C   0  0  0  0  0  0  0  0  0  0  0  0
  -27.5623   38.3892  -24.8779 C   0  0  0  0  0  0  0  0  0  0  0  0
  -29.0117   38.5452  -24.9241 C   0  0  0  0  0  0  0  0  0  0  0  0
  -29.7469   37.8175  -25.7812 N   0  0  0  0  0  0  0  0  0  0  0  0
  -31.0938   37.9368  -25.8508 C   0  0  0  0  0  0  0  0  0  0  0  0
  -31.7568   38.8223  -25.0308 C   0  0  0  0  0  0  0  0  0  0  0  0
  -30.9971   39.5654  -24.1542 C   0  0  0  0  0  0  0  0  0  0  0  0
  -29.6629   39.4033  -24.1308 N   0  0  0  0  0  0  0  0  0  0  0  0
  -26.9114   37.3297  -25.4707 C   0  0  0  0  0  0  0  0  0  0  0  0
  -25.5640   37.1950  -25.4217 N   0  0  0  0  0  0  0  0  0  0  0  0
  -22.5596   39.2094  -24.9140 C   0  0  0  0  0  0  0  0  0  0  0  0
  -21.1235   38.8646  -25.1258 C   0  0  0  0  0  0  0  0  0  0  0  0
  -19.4796   40.5434  -21.9100 C   0  0  0  0  0  0  0  0  0  0  0  0
  -14.3434   43.5619  -18.6851 C   0  0  0  0  0  0  0  0  0  0  0  0
  -14.6326   44.8321  -18.2296 C   0  0  0  0  0  0  0  0  0  0  0  0
  -13.8624   45.5053  -17.3097 C   0  0  0  0  0  0  0  0  0  0  0  0
  -12.7408   44.8515  -16.8295 C   0  0  0  0  0  0  0  0  0  0  0  0
  -12.3991   43.5862  -17.2440 C   0  0  0  0  0  0  0  0  0  0  0  0
  -11.1855   42.9155  -16.7052 C   0  0  0  0  0  0  0  0  0  0  0  0
  -11.5235   42.3998  -15.4656 F   0  0  0  0  0  0  0  0  0  0  0  0
  -10.7820   41.9159  -17.5679 F   0  0  0  0  0  0  0  0  0  0  0  0
  -10.1843   43.8516  -16.4949 F   0  0  0  0  0  0  0  0  0  0  0  0
  -13.2214   42.9532  -18.1809 C   0  0  0  0  0  0  0  0  0  0  0  0
  1  2  2  0
  2  3  1  0
  3  4  1  0
  4  5  1  0
  5  6  2  0
  5  7  1  0
  7  8  1  0
  8  9  1  0
  9 10  1  0
 10 11  1  6
 12 11  1  1
 12 13  1  0
 13 14  1  0
 14 15  1  0
 15 16  1  6
 15 17  1  0
 17 18  2  0
 18 19  1  0
 19 20  2  0
 20 21  1  0
 21 22  2  0
 22 23  1  0
 23 24  2  0
 24 25  1  0
 25 26  2  0
 20 27  1  0
 27 28  2  0
 15 29  1  0
 29 30  1  0
 10 31  1  0
  2 32  1  0
 32 33  2  0
 33 34  1  0
 34 35  2  0
 35 36  1  0
 36 37  1  0
 37 38  1  0
 37 39  1  0
 37 40  1  0
 36 41  2  0
 31  7  1  0
 41 32  1  0
 30 12  1  0
 28 17  1  0
 26 21  1  0
M  END
$$$$
