
     RDKit          3D

 29 31  0  0  0  0  0  0  0  0999 V2000
  -25.4962    8.9520  -24.5627 C   0  0  0  0  0  0  0  0  0  0  0  0
  -26.4668   10.0810  -24.2092 C   0  0  0  0  0  0  0  0  0  0  0  0
  -25.6139   11.2526  -23.7741 C   0  0  2  0  0  0  0  0  0  0  0  0
  -24.2475   10.6935  -23.4213 C   0  0  0  0  0  0  0  0  0  0  0  0
  -26.1475   11.9360  -22.5806 C   0  0  0  0  0  0  0  0  0  0  0  0
  -26.3124   11.3251  -21.4715 O   0  0  0  0  0  0  0  0  0  0  0  0
  -26.5079   13.2793  -22.5688 O   0  0  0  0  0  0  0  0  0  0  0  0
  -27.2714   13.8381  -21.4805 C   0  0  1  0  0  0  0  0  0  0  0  0
  -26.5398   15.1107  -21.1151 C   0  0  0  0  0  0  0  0  0  0  0  0
  -26.4986   16.0545  -22.2718 C   0  0  1  0  0  0  0  0  0  0  0  0
  -25.0495   16.2716  -22.7277 C   0  0  0  0  0  0  0  0  0  0  0  0
  -27.2522   15.6413  -23.4715 C   0  0  0  0  0  0  0  0  0  0  0  0
  -28.2596   14.8260  -23.3836 C   0  0  0  0  0  0  0  0  0  0  0  0
  -28.9943   14.4250  -24.5655 C   0  0  0  0  0  0  0  0  0  0  0  0
  -30.1467   13.8204  -24.4800 C   0  0  0  0  0  0  0  0  0  0  0  0
  -30.7113   13.5426  -23.1109 C   0  0  2  0  0  0  0  0  0  0  0  0
  -31.3749   14.8624  -22.7065 C   0  0  0  0  0  0  0  0  0  0  0  0
  -29.6303   13.1753  -22.1473 C   0  0  2  0  0  0  0  0  0  0  0  0
  -30.1091   12.8820  -20.7837 C   0  0  0  0  0  0  0  0  0  0  0  0
  -31.0304   11.8154  -20.4411 C   0  0  0  0  0  0  0  0  0  0  0  0
  -32.2005   12.0283  -19.5444 C   0  0  2  0  0  0  0  0  0  0  0  0
  -31.8293   12.3412  -18.1371 C   0  0  0  0  0  0  0  0  0  0  0  0
  -32.1257   11.2471  -17.1382 C   0  0  1  0  0  0  0  0  0  0  0  0
  -31.8355   11.6567  -15.8585 O   0  0  0  0  0  0  0  0  0  0  0  0
  -33.6318   10.9324  -17.1642 C   0  0  0  0  0  0  0  0  0  0  0  0
  -33.8851   10.5435  -18.5938 C   0  0  0  0  0  0  0  0  0  0  0  0
  -35.0313   10.0512  -18.8518 O   0  0  0  0  0  0  0  0  0  0  0  0
  -32.8944   10.7357  -19.5028 O   0  0  0  0  0  0  0  0  0  0  0  0
  -28.6170   14.3087  -22.0361 C   0  0  1  0  0  0  0  0  0  0  0  0
  1  2  1  0
  2  3  1  0
  3  4  1  1
  3  5  1  0
  5  6  2  0
  5  7  1  0
  8  7  1  6
  8  9  1  0
  9 10  1  0
 10 11  1  6
 10 12  1  0
 12 13  2  0
 13 14  1  0
 14 15  2  0
 15 16  1  0
 16 17  1  1
 16 18  1  0
 18 19  1  1
 19 20  1  0
 21 20  1  6
 21 22  1  0
 22 23  1  0
 23 24  1  1
 23 25  1  0
 25 26  1  0
 26 27  2  0
 26 28  1  0
 18 29  1  0
 29  8  1  0
 29 13  1  6
 28 21  1  0
M  END
$$$$
