
     RDKit          3D

  6  6  0  0  0  0  0  0  0  0999 V2000
  -15.8587   17.6723  -27.7439 C   0  0  0  0  0  0  0  0  0  0  0  0
  -16.4858   16.4034  -28.2112 C   0  0  0  0  0  0  0  0  0  0  0  0
  -17.1187   16.1926  -29.4228 C   0  0  0  0  0  0  0  0  0  0  0  0
  -17.5291   14.9220  -29.4242 N   0  0  0  0  0  0  0  0  0  0  0  0
  -17.1967   14.3117  -28.2895 N   0  0  0  0  0  0  0  0  0  0  0  0
  -16.5571   15.2067  -27.5367 C   0  0  0  0  0  0  0  0  0  0  0  0
  1  2  1  0
  2  3  1  0
  3  4  2  0
  4  5  1  0
  5  6  1  0
  6  2  2  0
M  END
$$$$
