
     RDKit          3D

 12 13  0  0  0  0  0  0  0  0999 V2000
  -18.5344   30.5250  -22.1169 O   0  0  0  0  0  0  0  0  0  0  0  0
  -19.4511   31.2846  -21.6546 C   0  0  0  0  0  0  0  0  0  0  0  0
  -20.3910   30.7408  -20.8040 C   0  0  0  0  0  0  0  0  0  0  0  0
  -21.3789   31.5594  -20.3058 C   0  0  0  0  0  0  0  0  0  0  0  0
  -21.4102   32.8985  -20.6641 C   0  0  0  0  0  0  0  0  0  0  0  0
  -22.3727   33.7725  -20.2006 C   0  0  0  0  0  0  0  0  0  0  0  0
  -22.3879   35.1112  -20.5707 C   0  0  0  0  0  0  0  0  0  0  0  0
  -21.4207   35.5867  -21.4221 C   0  0  0  0  0  0  0  0  0  0  0  0
  -21.3886   36.9319  -21.8290 O   0  0  0  0  0  0  0  0  0  0  0  0
  -20.4689   34.7040  -21.8752 C   0  0  0  0  0  0  0  0  0  0  0  0
  -20.4290   33.3518  -21.5195 C   0  0  0  0  0  0  0  0  0  0  0  0
  -19.4940   32.5548  -21.9847 O   0  0  0  0  0  0  0  0  0  0  0  0
  1  2  2  0
  2  3  1  0
  3  4  2  0
  4  5  1  0
  5  6  2  0
  6  7  1  0
  7  8  2  0
  8  9  1  0
  8 10  1  0
 10 11  2  0
 11 12  1  0
 12  2  1  0
 11  5  1  0
M  END
$$$$
