
     RDKit          3D

 21 23  0  0  0  0  0  0  0  0999 V2000
  -21.1715   40.3759  -17.2800 O   0  0  0  0  0  0  0  0  0  0  0  0
  -20.7064   40.9680  -18.2970 C   0  0  0  0  0  0  0  0  0  0  0  0
  -21.5471   41.9498  -18.9299 N   0  0  0  0  0  0  0  0  0  0  0  0
  -21.0593   42.6403  -20.0796 C   0  0  0  0  0  0  0  0  0  0  0  0
  -21.8682   43.5771  -20.7371 C   0  0  0  0  0  0  0  0  0  0  0  0
  -21.4420   44.2359  -21.8646 C   0  0  0  0  0  0  0  0  0  0  0  0
  -20.1854   43.9669  -22.3611 C   0  0  0  0  0  0  0  0  0  0  0  0
  -19.6360   44.7858  -23.8045 Cl  0  0  0  0  0  0  0  0  0  0  0  0
  -19.4065   43.0362  -21.6869 C   0  0  0  0  0  0  0  0  0  0  0  0
  -19.8159   42.3643  -20.5541 C   0  0  0  0  0  0  0  0  0  0  0  0
  -18.9211   41.3965  -19.8969 C   0  0  1  0  0  0  0  0  0  0  0  0
  -18.5129   40.3611  -20.8712 C   0  0  0  0  0  0  0  0  0  0  0  0
  -18.1826   39.5273  -21.6560 C   0  0  0  0  0  0  0  0  0  0  0  0
  -17.7471   38.4960  -22.6265 C   0  0  0  0  0  0  0  0  0  0  0  0
  -17.6944   38.9301  -24.0211 C   0  0  0  0  0  0  0  0  0  0  0  0
  -18.8669   38.1059  -23.6008 C   0  0  0  0  0  0  0  0  0  0  0  0
  -17.6641   42.1001  -19.3603 C   0  0  0  0  0  0  0  0  0  0  0  0
  -17.9752   43.2044  -18.6330 F   0  0  0  0  0  0  0  0  0  0  0  0
  -16.9414   42.4959  -20.4695 F   0  0  0  0  0  0  0  0  0  0  0  0
  -16.8755   41.1981  -18.6685 F   0  0  0  0  0  0  0  0  0  0  0  0
  -19.4767   40.7314  -18.8190 O   0  0  0  0  0  0  0  0  0  0  0  0
  1  2  2  0
  2  3  1  0
  3  4  1  0
  4  5  2  0
  5  6  1  0
  6  7  2  0
  7  8  1  0
  7  9  1  0
  9 10  2  0
 10 11  1  0
 11 12  1  6
 12 13  3  0
 13 14  1  0
 14 15  1  0
 15 16  1  0
 11 17  1  0
 17 18  1  0
 17 19  1  0
 17 20  1  0
 11 21  1  0
 21  2  1  0
 10  4  1  0
 16 14  1  0
M  END
$$$$
