
     RDKit          3D

 21 23  0  0  0  0  0  0  0  0999 V2000
  -22.3332   12.1422  -24.1278 C   0  0  0  0  0  0  0  0  0  0  0  0
  -22.4847   13.2070  -23.2137 O   0  0  0  0  0  0  0  0  0  0  0  0
  -23.5992   14.0409  -23.2458 C   0  0  0  0  0  0  0  0  0  0  0  0
  -23.8387   14.9118  -22.2185 C   0  0  0  0  0  0  0  0  0  0  0  0
  -24.9312   15.7514  -22.2167 C   0  0  0  0  0  0  0  0  0  0  0  0
  -25.8299   15.7584  -23.2374 C   0  0  0  0  0  0  0  0  0  0  0  0
  -26.9949   16.6280  -23.2738 C   0  0  0  0  0  0  0  0  0  0  0  0
  -27.5354   17.0811  -22.0988 C   0  0  0  0  0  0  0  0  0  0  0  0
  -28.6601   17.9193  -22.1681 C   0  0  0  0  0  0  0  0  0  0  0  0
  -29.1946   18.3626  -21.1206 O   0  0  0  0  0  0  0  0  0  0  0  0
  -29.1792   18.2562  -23.3974 C   0  0  0  0  0  0  0  0  0  0  0  0
  -30.2935   19.0843  -23.5208 C   0  0  0  0  0  0  0  0  0  0  0  0
  -30.8497   19.5492  -22.3442 O   0  0  0  0  0  0  0  0  0  0  0  0
  -30.8093   19.4185  -24.7556 C   0  0  0  0  0  0  0  0  0  0  0  0
  -30.2235   18.9325  -25.9045 C   0  0  0  0  0  0  0  0  0  0  0  0
  -30.7351   19.2621  -27.1735 O   0  0  0  0  0  0  0  0  0  0  0  0
  -29.1227   18.1149  -25.7717 C   0  0  0  0  0  0  0  0  0  0  0  0
  -28.5841   17.7636  -24.5392 C   0  0  0  0  0  0  0  0  0  0  0  0
  -27.5387   16.9862  -24.4362 O   0  0  0  0  0  0  0  0  0  0  0  0
  -25.5781   14.8628  -24.2874 C   0  0  0  0  0  0  0  0  0  0  0  0
  -24.4892   14.0241  -24.2919 C   0  0  0  0  0  0  0  0  0  0  0  0
  1  2  1  0
  2  3  1  0
  3  4  2  0
  4  5  1  0
  5  6  2  0
  6  7  1  0
  7  8  2  0
  8  9  1  0
  9 10  2  0
  9 11  1  0
 11 12  2  0
 12 13  1  0
 12 14  1  0
 14 15  2  0
 15 16  1  0
 15 17  1  0
 17 18  2  0
 18 19  1  0
  6 20  1  0
 20 21  2  0
 21  3  1  0
 19  7  1  0
 18 11  1  0
M  END
$$$$
