
     RDKit          3D

 33 38  0  0  0  0  0  0  0  0999 V2000
  -19.5952   39.1930  -17.3617 C   0  0  0  0  0  0  0  0  0  0  0  0
  -18.7964   39.2413  -18.4915 C   0  0  0  0  0  0  0  0  0  0  0  0
  -19.3690   39.0205  -19.7420 C   0  0  0  0  0  0  0  0  0  0  0  0
  -20.7173   38.7554  -19.8652 C   0  0  0  0  0  0  0  0  0  0  0  0
  -21.2727   38.5332  -21.1933 C   0  0  0  0  0  0  0  0  0  0  0  0
  -22.5002   38.1037  -21.5344 N   0  0  0  0  0  0  0  0  0  0  0  0
  -22.5999   38.0406  -22.8693 N   0  0  0  0  0  0  0  0  0  0  0  0
  -21.4530   38.4223  -23.4350 C   0  0  0  0  0  0  0  0  0  0  0  0
  -20.6038   38.7373  -22.3789 C   0  0  0  0  0  0  0  0  0  0  0  0
  -19.2256   39.2022  -22.4851 C   0  0  0  0  0  0  0  0  0  0  0  0
  -18.2005   38.3600  -22.8926 C   0  0  0  0  0  0  0  0  0  0  0  0
  -16.8910   38.7981  -22.9865 C   0  0  0  0  0  0  0  0  0  0  0  0
  -16.6395   40.0780  -22.6673 N   0  0  0  0  0  0  0  0  0  0  0  0
  -17.6048   40.9409  -22.2636 C   0  0  0  0  0  0  0  0  0  0  0  0
  -17.2630   42.2386  -21.9498 C   0  0  0  0  0  0  0  0  0  0  0  0
  -18.2273   43.1267  -21.5342 C   0  0  0  0  0  0  0  0  0  0  0  0
  -17.9642   44.4137  -21.2042 O   0  0  0  0  0  0  0  0  0  0  0  0
  -17.0384   45.0164  -20.3911 C   0  0  0  0  0  0  0  0  0  0  0  0
  -16.4611   46.3140  -20.8535 C   0  0  0  0  0  0  0  0  0  0  0  0
  -15.4387   46.8205  -19.9346 N   0  0  0  0  0  0  0  0  0  0  0  0
  -15.9398   46.9291  -18.5972 C   0  0  0  0  0  0  0  0  0  0  0  0
  -14.7907   47.2049  -17.6601 C   0  0  0  0  0  0  0  0  0  0  0  0
  -13.9389   46.1030  -17.6851 O   0  0  0  0  0  0  0  0  0  0  0  0
  -13.3076   46.0953  -18.9318 C   0  0  0  0  0  0  0  0  0  0  0  0
  -14.3162   45.9091  -20.0135 C   0  0  0  0  0  0  0  0  0  0  0  0
  -19.5486   42.6379  -21.4544 C   0  0  0  0  0  0  0  0  0  0  0  0
  -19.8946   41.3534  -21.7639 C   0  0  0  0  0  0  0  0  0  0  0  0
  -18.9013   40.4998  -22.1731 C   0  0  0  0  0  0  0  0  0  0  0  0
  -21.5141   38.3632  -24.9214 C   0  0  0  0  0  0  0  0  0  0  0  0
  -22.6964   37.4317  -25.1225 C   0  0  0  0  0  0  0  0  0  0  0  0
  -23.5313   37.6996  -23.9144 C   0  0  0  0  0  0  0  0  0  0  0  0
  -21.4405   38.7216  -18.7319 N   0  0  0  0  0  0  0  0  0  0  0  0
  -20.9298   38.9281  -17.5114 C   0  0  0  0  0  0  0  0  0  0  0  0
  1  2  2  0
  2  3  1  0
  3  4  2  0
  4  5  1  0
  5  6  2  0
  6  7  1  0
  7  8  1  0
  8  9  2  0
  9 10  1  0
 10 11  2  0
 11 12  1  0
 12 13  2  0
 13 14  1  0
 14 15  2  0
 15 16  1  0
 16 17  1  0
 17 18  1  0
 18 19  1  0
 19 20  1  0
 20 21  1  0
 21 22  1  0
 22 23  1  0
 23 24  1  0
 24 25  1  0
 16 26  2  0
 26 27  1  0
 27 28  2  0
  8 29  1  0
 29 30  1  0
 30 31  1  0
  4 32  1  0
 32 33  2  0
 33  1  1  0
  9  5  1  0
 28 10  1  0
 31  7  1  0
 28 14  1  0
 25 20  1  0
M  END
$$$$
