
     RDKit          3D

 34 38  0  0  0  0  0  0  0  0999 V2000
  -27.9939   19.3125  -27.2646 C   0  0  0  0  0  0  0  0  0  0  0  0
  -26.8915   19.1007  -26.3096 C   0  0  0  0  0  0  0  0  0  0  0  0
  -26.8396   17.9290  -25.5952 C   0  0  0  0  0  0  0  0  0  0  0  0
  -25.8026   17.7565  -24.7124 C   0  0  0  0  0  0  0  0  0  0  0  0
  -25.7391   16.5427  -23.9674 N   0  0  0  0  0  0  0  0  0  0  0  0
  -26.2977   15.3343  -24.5053 C   0  0  0  0  0  0  0  0  0  0  0  0
  -25.9233   14.0893  -23.7544 C   0  0  0  0  0  0  0  0  0  0  0  0
  -24.8451   14.2549  -22.8942 O   0  0  0  0  0  0  0  0  0  0  0  0
  -25.2608   15.2484  -21.9797 C   0  0  0  0  0  0  0  0  0  0  0  0
  -25.1126   16.5610  -22.6811 C   0  0  0  0  0  0  0  0  0  0  0  0
  -24.8474   18.7434  -24.5592 C   0  0  0  0  0  0  0  0  0  0  0  0
  -24.8898   19.9250  -25.2720 C   0  0  0  0  0  0  0  0  0  0  0  0
  -24.1480   21.0239  -25.3439 N   0  0  0  0  0  0  0  0  0  0  0  0
  -24.6705   21.9161  -26.2518 C   0  0  0  0  0  0  0  0  0  0  0  0
  -23.9855   23.1616  -26.5669 C   0  0  0  0  0  0  0  0  0  0  0  0
  -24.1286   23.8649  -27.7246 C   0  0  0  0  0  0  0  0  0  0  0  0
  -25.2214   23.6527  -28.5724 N   0  0  0  0  0  0  0  0  0  0  0  0
  -25.0409   23.4589  -29.9939 C   0  0  0  0  0  0  0  0  0  0  0  0
  -25.4429   22.0736  -30.4446 C   0  0  1  0  0  0  0  0  0  0  0  0
  -25.7952   22.1629  -31.8020 O   0  0  0  0  0  0  0  0  0  0  0  0
  -24.3108   21.1564  -30.2538 C   0  0  0  0  0  0  0  0  0  0  0  0
  -24.3710   20.1580  -29.3062 C   0  0  0  0  0  0  0  0  0  0  0  0
  -23.2997   19.2837  -29.1198 C   0  0  0  0  0  0  0  0  0  0  0  0
  -22.1606   19.4080  -29.8856 C   0  0  0  0  0  0  0  0  0  0  0  0
  -22.0874   20.3996  -30.8345 C   0  0  0  0  0  0  0  0  0  0  0  0
  -20.6339   20.5452  -31.7999 Cl  0  0  0  0  0  0  0  0  0  0  0  0
  -23.1728   21.2622  -31.0021 C   0  0  0  0  0  0  0  0  0  0  0  0
  -23.3177   24.9639  -28.0540 C   0  0  0  0  0  0  0  0  0  0  0  0
  -22.3504   25.3289  -27.1529 C   0  0  0  0  0  0  0  0  0  0  0  0
  -22.1965   24.6513  -26.0017 N   0  0  0  0  0  0  0  0  0  0  0  0
  -22.9675   23.6033  -25.6892 C   0  0  0  0  0  0  0  0  0  0  0  0
  -22.8156   22.9716  -24.6022 O   0  0  0  0  0  0  0  0  0  0  0  0
  -25.7456   21.3104  -26.7179 N   0  0  0  0  0  0  0  0  0  0  0  0
  -25.9358   20.0733  -26.1478 C   0  0  0  0  0  0  0  0  0  0  0  0
  1  2  1  0
  2  3  2  0
  3  4  1  0
  4  5  1  0
  5  6  1  0
  6  7  1  0
  7  8  1  0
  8  9  1  0
  9 10  1  0
  4 11  2  0
 11 12  1  0
 12 13  1  0
 13 14  2  0
 14 15  1  0
 15 16  2  0
 16 17  1  0
 17 18  1  0
 18 19  1  0
 19 20  1  6
 19 21  1  0
 21 22  2  0
 22 23  1  0
 23 24  2  0
 24 25  1  0
 25 26  1  0
 25 27  2  0
 16 28  1  0
 28 29  2  0
 29 30  1  0
 30 31  1  0
 31 32  2  0
 14 33  1  0
 33 34  1  0
 34  2  1  0
 10  5  1  0
 34 12  2  0
 31 15  1  0
 27 21  1  0
M  END
$$$$
