
     RDKit          3D

 28 31  0  0  0  0  0  0  0  0999 V2000
    4.2006   20.6982  -24.7232 C   0  0  0  0  0  0  0  0  0  0  0  0
    2.7746   20.7729  -24.2616 C   0  0  0  0  0  0  0  0  0  0  0  0
    2.5652   22.1491  -23.6162 C   0  0  0  0  0  0  0  0  0  0  0  0
    2.4965   19.7719  -23.1989 C   0  0  0  0  0  0  0  0  0  0  0  0
    1.9043   18.5936  -23.5620 C   0  0  0  0  0  0  0  0  0  0  0  0
    1.6434   17.6806  -22.6147 C   0  0  0  0  0  0  0  0  0  0  0  0
    1.9584   17.8955  -21.2622 C   0  0  0  0  0  0  0  0  0  0  0  0
    1.7173   16.7676  -20.4215 N   0  0  0  0  0  0  0  0  0  0  0  0
    0.3874   16.2741  -20.2151 C   0  0  0  0  0  0  0  0  0  0  0  0
   -0.4889   16.6238  -21.0301 O   0  0  0  0  0  0  0  0  0  0  0  0
    0.0633   15.4037  -19.1077 C   0  0  0  0  0  0  0  0  0  0  0  0
    1.0163   14.7143  -18.2925 C   0  0  0  0  0  0  0  0  0  0  0  0
    0.5322   13.9611  -17.3239 C   0  0  0  0  0  0  0  0  0  0  0  0
   -0.8010   13.8465  -17.1119 C   0  0  0  0  0  0  0  0  0  0  0  0
   -1.4426   14.9301  -18.4370 S   0  0  0  0  0  0  0  0  0  0  0  0
    2.5368   19.0406  -20.8620 C   0  0  0  0  0  0  0  0  0  0  0  0
    2.8028   19.4926  -19.5076 C   0  0  0  0  0  0  0  0  0  0  0  0
    3.4491   20.6966  -19.3746 N   0  0  0  0  0  0  0  0  0  0  0  0
    3.7075   21.2627  -18.2109 C   0  0  0  0  0  0  0  0  0  0  0  0
    4.3709   22.4815  -18.1316 C   0  0  0  0  0  0  0  0  0  0  0  0
    4.6169   23.0204  -16.8925 C   0  0  0  0  0  0  0  0  0  0  0  0
    4.2401   22.4166  -15.7112 C   0  0  0  0  0  0  0  0  0  0  0  0
    3.5897   21.2216  -15.7864 C   0  0  0  0  0  0  0  0  0  0  0  0
    3.3316   20.6594  -17.0372 C   0  0  0  0  0  0  0  0  0  0  0  0
    2.7035   19.4942  -17.1496 N   0  0  0  0  0  0  0  0  0  0  0  0
    2.4238   18.8872  -18.3555 C   0  0  0  0  0  0  0  0  0  0  0  0
    1.8289   17.8158  -18.2776 O   0  0  0  0  0  0  0  0  0  0  0  0
    2.8055   19.9927  -21.8885 C   0  0  0  0  0  0  0  0  0  0  0  0
  1  2  1  0
  2  3  1  0
  2  4  1  0
  4  5  2  0
  5  6  1  0
  6  7  2  0
  7  8  1  0
  8  9  1  0
  9 10  2  0
  9 11  1  0
 11 12  2  0
 12 13  1  0
 13 14  2  0
 14 15  1  0
  7 16  1  0
 16 17  1  0
 17 18  2  0
 18 19  1  0
 19 20  2  0
 20 21  1  0
 21 22  2  0
 22 23  1  0
 23 24  2  0
 24 25  1  0
 25 26  1  0
 26 27  2  0
 16 28  2  0
 28  4  1  0
 15 11  1  0
 26 17  1  0
 24 19  1  0
M  END
$$$$
