
     RDKit          3D

 42 48  0  0  0  0  0  0  0  0999 V2000
  -20.9392   31.7154  -20.9899 O   0  0  0  0  0  0  0  0  0  0  0  0
  -19.9976   32.5351  -20.8509 C   0  0  0  0  0  0  0  0  0  0  0  0
  -18.7649   32.0213  -20.4425 O   0  0  0  0  0  0  0  0  0  0  0  0
  -20.1069   33.9472  -21.0826 C   0  0  0  0  0  0  0  0  0  0  0  0
  -21.2689   34.5377  -21.5301 C   0  0  0  0  0  0  0  0  0  0  0  0
  -21.4464   35.8617  -21.7812 C   0  0  0  0  0  0  0  0  0  0  0  0
  -22.6547   36.2610  -22.2177 F   0  0  0  0  0  0  0  0  0  0  0  0
  -20.3640   36.7323  -21.5741 C   0  0  0  0  0  0  0  0  0  0  0  0
  -20.3111   38.0286  -21.7571 N   0  0  0  0  0  0  0  0  0  0  0  0
  -19.4345   38.7724  -21.6018 C   0  0  0  0  0  0  0  0  0  0  0  0
  -19.1535   40.1446  -21.7645 N   0  0  0  0  0  0  0  0  0  0  0  0
  -18.1067   40.6949  -22.5969 C   0  0  1  0  0  0  0  0  0  0  0  0
  -18.9730   41.6738  -23.4189 C   0  0  0  0  0  0  0  0  0  0  0  0
  -20.0958   42.0722  -22.5091 C   0  0  0  0  0  0  0  0  0  0  0  0
  -19.8278   41.2617  -21.2148 C   0  0  2  0  0  0  0  0  0  0  0  0
  -18.9808   42.1799  -20.3535 C   0  0  0  0  0  0  0  0  0  0  0  0
  -17.7412   42.6259  -21.0264 C   0  0  2  0  0  0  0  0  0  0  0  0
  -17.8616   43.7203  -21.8388 O   0  0  0  0  0  0  0  0  0  0  0  0
  -16.6538   44.3000  -22.2325 C   0  0  0  0  0  0  0  0  0  0  0  0
  -16.3240   45.5412  -21.5200 C   0  0  0  0  0  0  0  0  0  0  0  0
  -15.8563   45.7499  -20.2360 C   0  0  0  0  0  0  0  0  0  0  0  0
  -15.3234   44.7179  -19.3425 C   0  0  0  0  0  0  0  0  0  0  0  0
  -16.0772   43.6335  -18.9640 C   0  0  0  0  0  0  0  0  0  0  0  0
  -15.5825   42.6035  -18.1612 C   0  0  0  0  0  0  0  0  0  0  0  0
  -14.2805   42.6556  -17.7183 C   0  0  0  0  0  0  0  0  0  0  0  0
  -13.5108   43.7465  -18.0963 C   0  0  0  0  0  0  0  0  0  0  0  0
  -13.9999   44.7707  -18.8925 C   0  0  0  0  0  0  0  0  0  0  0  0
  -13.2530   45.8637  -19.2833 O   0  0  0  0  0  0  0  0  0  0  0  0
  -12.3476   45.9100  -20.3392 C   0  0  0  0  0  0  0  0  0  0  0  0
  -11.3095   45.0331  -20.0373 F   0  0  0  0  0  0  0  0  0  0  0  0
  -11.8468   47.2014  -20.4329 F   0  0  0  0  0  0  0  0  0  0  0  0
  -12.9574   45.5412  -21.5303 F   0  0  0  0  0  0  0  0  0  0  0  0
  -15.8901   47.0849  -19.9556 N   0  0  0  0  0  0  0  0  0  0  0  0
  -16.3421   47.6889  -20.9846 O   0  0  0  0  0  0  0  0  0  0  0  0
  -16.6228   46.8242  -21.9643 C   0  0  0  0  0  0  0  0  0  0  0  0
  -17.1595   47.2501  -23.2724 C   0  0  0  0  0  0  0  0  0  0  0  0
  -17.8769   48.5988  -23.4104 C   0  0  0  0  0  0  0  0  0  0  0  0
  -16.5157   48.3932  -23.9466 C   0  0  0  0  0  0  0  0  0  0  0  0
  -17.1115   41.4951  -21.8458 C   0  0  0  0  0  0  0  0  0  0  0  0
  -18.0991   37.5634  -21.0017 S   0  0  0  0  0  0  0  0  0  0  0  0
  -19.2084   36.1695  -21.1315 C   0  0  0  0  0  0  0  0  0  0  0  0
  -19.0319   34.8162  -20.8770 C   0  0  0  0  0  0  0  0  0  0  0  0
  1  2  2  0
  2  3  1  0
  2  4  1  0
  4  5  2  0
  5  6  1  0
  6  7  1  0
  6  8  2  0
  8  9  1  0
  9 10  2  0
 10 11  1  0
 11 12  1  0
 12 13  1  6
 13 14  1  0
 15 14  1  6
 15 16  1  0
 16 17  1  0
 17 18  1  6
 18 19  1  0
 19 20  1  0
 20 21  1  0
 21 22  1  0
 22 23  2  0
 23 24  1  0
 24 25  2  0
 25 26  1  0
 26 27  2  0
 27 28  1  0
 28 29  1  0
 29 30  1  0
 29 31  1  0
 29 32  1  0
 21 33  2  0
 33 34  1  0
 34 35  1  0
 35 36  1  0
 36 37  1  0
 37 38  1  0
 17 39  1  0
 10 40  1  0
 40 41  1  0
 41 42  2  0
 42  4  1  0
 41  8  1  0
 15 11  1  0
 35 20  2  0
 38 36  1  0
 39 12  1  0
 27 22  1  0
M  END
$$$$
