
     RDKit          3D

 14 14  0  0  0  0  0  0  0  0999 V2000
  -17.7592   42.0314  -20.2989 Cl  0  0  0  0  0  0  0  0  0  0  0  0
  -16.3715   45.0012  -20.2430 N   0  0  0  0  0  0  0  0  0  0  0  0
  -17.3191   43.9351  -20.0808 C   0  0  0  0  0  0  0  0  0  0  0  0
  -16.6569   42.6685  -19.5422 C   0  0  0  0  0  0  0  0  0  0  0  0
  -17.7406   41.6649  -19.4205 C   0  0  0  0  0  0  0  0  0  0  0  0
  -18.4110   41.2756  -18.2842 C   0  0  0  0  0  0  0  0  0  0  0  0
  -19.3283   40.3496  -18.6133 N   0  0  0  0  0  0  0  0  0  0  0  0
  -19.2814   40.1167  -19.9337 C   0  0  0  0  0  0  0  0  0  0  0  0
  -20.0273   39.2529  -20.7066 C   0  0  0  0  0  0  0  0  0  0  0  0
  -19.7936   39.1782  -22.0814 C   0  0  0  0  0  0  0  0  0  0  0  0
  -18.8044   39.9918  -22.6107 C   0  0  0  0  0  0  0  0  0  0  0  0
  -18.5514   39.9379  -23.9679 O   0  0  0  0  0  0  0  0  0  0  0  0
  -18.0707   40.8484  -21.8211 C   0  0  0  0  0  0  0  0  0  0  0  0
  -18.2833   40.9391  -20.4629 C   0  0  0  0  0  0  0  0  0  0  0  0
  2  3  1  0
  3  4  1  0
  4  5  1  0
  5  6  2  0
  6  7  1  0
  7  8  1  0
  8  9  2  0
  9 10  1  0
 10 11  2  0
 11 12  1  0
 11 13  1  0
 13 14  2  0
 14  5  1  0
 14  8  1  0
M  END
$$$$
