
     RDKit          3D

 21 23  0  0  0  0  0  0  0  0999 V2000
  -31.6514   24.5527  -36.9821 C   0  0  0  0  0  0  0  0  0  0  0  0
  -30.2107   24.3574  -36.6290 C   0  0  0  0  0  0  0  0  0  0  0  0
  -29.2275   24.3784  -37.5919 C   0  0  0  0  0  0  0  0  0  0  0  0
  -27.8852   24.1964  -37.2627 C   0  0  0  0  0  0  0  0  0  0  0  0
  -27.5372   23.9913  -35.9452 C   0  0  0  0  0  0  0  0  0  0  0  0
  -25.8145   23.7608  -35.5470 S   0  0  0  0  0  0  0  0  0  0  0  0
  -24.8694   25.1965  -36.0639 C   0  0  0  0  0  0  0  0  0  0  0  0
  -25.3571   26.4625  -35.8125 C   0  0  0  0  0  0  0  0  0  0  0  0
  -24.6203   27.5521  -36.2153 C   0  0  0  0  0  0  0  0  0  0  0  0
  -23.4174   27.3712  -36.8579 C   0  0  0  0  0  0  0  0  0  0  0  0
  -22.9515   26.0958  -37.0976 C   0  0  0  0  0  0  0  0  0  0  0  0
  -23.6703   24.9612  -36.7041 C   0  0  0  0  0  0  0  0  0  0  0  0
  -23.1739   23.6694  -36.9600 N   0  0  0  0  0  0  0  0  0  0  0  0
  -22.7171   22.7509  -35.9401 C   0  0  0  0  0  0  0  0  0  0  0  0
  -21.7966   21.7040  -36.4950 C   0  0  0  0  0  0  0  0  0  0  0  0
  -22.2884   21.0276  -37.6446 N   0  0  0  0  0  0  0  0  0  0  0  0
  -23.2751   21.7331  -38.3981 C   0  0  0  0  0  0  0  0  0  0  0  0
  -23.1087   23.2111  -38.3367 C   0  0  0  0  0  0  0  0  0  0  0  0
  -28.4964   23.9656  -34.9660 C   0  0  0  0  0  0  0  0  0  0  0  0
  -28.1162   23.7440  -33.5472 C   0  0  0  0  0  0  0  0  0  0  0  0
  -29.8150   24.1478  -35.3155 C   0  0  0  0  0  0  0  0  0  0  0  0
  1  2  1  0
  2  3  2  0
  3  4  1  0
  4  5  2  0
  5  6  1  0
  6  7  1  0
  7  8  2  0
  8  9  1  0
  9 10  2  0
 10 11  1  0
 11 12  2  0
 12 13  1  0
 13 14  1  0
 14 15  1  0
 15 16  1  0
 16 17  1  0
 17 18  1  0
  5 19  1  0
 19 20  1  0
 19 21  2  0
 21  2  1  0
 12  7  1  0
 18 13  1  0
M  END
$$$$
