
     RDKit          3D

 14 14  0  0  0  0  0  0  0  0999 V2000
  -21.6322   36.2402  -22.8414 N   0  0  0  0  0  0  0  0  0  0  0  0
  -21.0900   37.3627  -23.5334 C   0  0  0  0  0  0  0  0  0  0  0  0
  -20.0709   38.1143  -22.7644 C   0  0  2  0  0  0  0  0  0  0  0  0
  -19.1884   39.0432  -23.4985 C   0  0  0  0  0  0  0  0  0  0  0  0
  -18.6600   40.2084  -22.8227 C   0  0  0  0  0  0  0  0  0  0  0  0
  -17.5039   40.6105  -23.2225 O   0  0  0  0  0  0  0  0  0  0  0  0
  -19.2084   40.9560  -21.8108 O   0  0  0  0  0  0  0  0  0  0  0  0
  -19.1410   37.0687  -22.1732 C   0  0  0  0  0  0  0  0  0  0  0  0
  -19.0809   37.0358  -20.8087 C   0  0  0  0  0  0  0  0  0  0  0  0
  -18.2637   36.1128  -20.1968 C   0  0  0  0  0  0  0  0  0  0  0  0
  -17.5269   35.2442  -20.9520 C   0  0  0  0  0  0  0  0  0  0  0  0
  -16.4983   34.0787  -20.1504 Cl  0  0  0  0  0  0  0  0  0  0  0  0
  -17.5909   35.2808  -22.3123 C   0  0  0  0  0  0  0  0  0  0  0  0
  -18.4113   36.2088  -22.9329 C   0  0  0  0  0  0  0  0  0  0  0  0
  1  2  1  0
  3  2  1  6
  3  4  1  0
  4  5  1  0
  5  6  2  0
  5  7  1  0
  3  8  1  0
  8  9  2  0
  9 10  1  0
 10 11  2  0
 11 12  1  0
 11 13  1  0
 13 14  2  0
 14  8  1  0
M  END
$$$$
