
     RDKit          3D

 25 29  0  0  0  0  0  0  0  0999 V2000
  -16.5058   -3.9922  -31.7188 O   0  0  0  0  0  0  0  0  0  0  0  0
  -15.3833   -3.5608  -32.0733 C   0  0  0  0  0  0  0  0  0  0  0  0
  -14.1377   -4.2169  -31.7805 N   0  0  0  0  0  0  0  0  0  0  0  0
  -13.0744   -3.4519  -32.3308 C   0  0  0  0  0  0  0  0  0  0  0  0
  -11.8703   -3.7915  -32.2222 O   0  0  0  0  0  0  0  0  0  0  0  0
  -13.7067   -2.3117  -32.9676 C   0  0  0  0  0  0  0  0  0  0  0  0
  -13.0351   -1.2060  -33.6375 C   0  0  0  0  0  0  0  0  0  0  0  0
  -12.5782   -1.2285  -34.9653 C   0  0  0  0  0  0  0  0  0  0  0  0
  -12.0147   -0.0410  -35.2323 N   0  0  0  0  0  0  0  0  0  0  0  0
  -12.0874    0.7429  -34.1375 C   0  0  0  0  0  0  0  0  0  0  0  0
  -11.6692    2.0385  -33.8579 C   0  0  0  0  0  0  0  0  0  0  0  0
  -11.8693    2.6110  -32.6224 C   0  0  0  0  0  0  0  0  0  0  0  0
  -12.5033    1.8792  -31.6335 C   0  0  0  0  0  0  0  0  0  0  0  0
  -12.9279    0.6083  -31.8706 C   0  0  0  0  0  0  0  0  0  0  0  0
  -12.7196    0.0347  -33.1309 C   0  0  0  0  0  0  0  0  0  0  0  0
  -15.0314   -2.3489  -32.8353 C   0  0  0  0  0  0  0  0  0  0  0  0
  -16.0241   -1.4255  -33.3577 C   0  0  0  0  0  0  0  0  0  0  0  0
  -16.7845   -1.5406  -34.4931 C   0  0  0  0  0  0  0  0  0  0  0  0
  -17.5515   -0.4399  -34.5865 N   0  0  0  0  0  0  0  0  0  0  0  0
  -17.3329    0.3998  -33.5657 C   0  0  0  0  0  0  0  0  0  0  0  0
  -17.8299    1.6315  -33.1987 C   0  0  0  0  0  0  0  0  0  0  0  0
  -17.3876    2.2760  -32.0631 C   0  0  0  0  0  0  0  0  0  0  0  0
  -16.4332    1.6811  -31.2817 C   0  0  0  0  0  0  0  0  0  0  0  0
  -15.9422    0.4470  -31.6569 C   0  0  0  0  0  0  0  0  0  0  0  0
  -16.3745   -0.2070  -32.7854 C   0  0  0  0  0  0  0  0  0  0  0  0
  1  2  2  0
  2  3  1  0
  3  4  1  0
  4  5  2  0
  4  6  1  0
  6  7  1  0
  7  8  2  0
  8  9  1  0
  9 10  1  0
 10 11  2  0
 11 12  1  0
 12 13  2  0
 13 14  1  0
 14 15  2  0
  6 16  2  0
 16 17  1  0
 17 18  2  0
 18 19  1  0
 19 20  1  0
 20 21  2  0
 21 22  1  0
 22 23  2  0
 23 24  1  0
 24 25  2  0
 16  2  1  0
 25 17  1  0
 15  7  1  0
 25 20  1  0
 15 10  1  0
M  END
$$$$
