
     RDKit          3D

 22 25  0  0  0  0  0  0  0  0999 V2000
  -17.2530   37.9658  -21.8986 C   0  0  0  0  0  0  0  0  0  0  0  0
  -18.3103   38.4191  -21.9401 C   0  0  0  0  0  0  0  0  0  0  0  0
  -19.6569   39.0197  -21.9955 C   0  0  2  0  0  0  0  0  0  0  0  0
  -20.6364   38.1719  -21.5489 O   0  0  0  0  0  0  0  0  0  0  0  0
  -20.0073   39.5144  -23.3780 C   0  0  0  0  0  0  0  0  0  0  0  0
  -19.7525   41.0341  -23.3643 C   0  0  0  0  0  0  0  0  0  0  0  0
  -18.8922   41.1576  -22.1602 C   0  0  1  0  0  0  0  0  0  0  0  0
  -18.6614   42.4754  -21.5637 C   0  0  2  0  0  0  0  0  0  0  0  0
  -18.1125   43.5204  -22.5023 C   0  0  0  0  0  0  0  0  0  0  0  0
  -18.1162   44.8328  -21.7080 C   0  0  0  0  0  0  0  0  0  0  0  0
  -17.1752   44.6602  -20.5419 C   0  0  0  0  0  0  0  0  0  0  0  0
  -16.4772   45.7346  -20.0176 C   0  0  0  0  0  0  0  0  0  0  0  0
  -15.6008   45.6414  -18.9617 C   0  0  0  0  0  0  0  0  0  0  0  0
  -14.9012   46.7415  -18.4491 O   0  0  0  0  0  0  0  0  0  0  0  0
  -15.4067   44.3846  -18.3850 C   0  0  0  0  0  0  0  0  0  0  0  0
  -16.1042   43.3118  -18.9095 C   0  0  0  0  0  0  0  0  0  0  0  0
  -16.9773   43.4262  -19.9690 C   0  0  0  0  0  0  0  0  0  0  0  0
  -17.6470   42.2266  -20.4345 C   0  0  1  0  0  0  0  0  0  0  0  0
  -18.3883   41.4527  -19.3726 C   0  0  0  0  0  0  0  0  0  0  0  0
  -18.9487   40.1920  -19.9089 C   0  0  0  0  0  0  0  0  0  0  0  0
  -19.6989   40.3001  -21.1782 C   0  0  2  0  0  0  0  0  0  0  0  0
  -21.1149   40.7366  -21.0852 C   0  0  0  0  0  0  0  0  0  0  0  0
  1  2  3  0
  2  3  1  0
  3  4  1  1
  3  5  1  0
  5  6  1  0
  7  6  1  6
  7  8  1  0
  8  9  1  6
  9 10  1  0
 10 11  1  0
 11 12  2  0
 12 13  1  0
 13 14  1  0
 13 15  2  0
 15 16  1  0
 16 17  2  0
 17 18  1  0
 18 19  1  1
 19 20  1  0
 20 21  1  0
 21 22  1  1
 21  3  1  0
 21  7  1  0
 18  8  1  0
 17 11  1  0
M  END
$$$$
