
     RDKit          3D

 23 26  0  0  0  0  0  0  0  0999 V2000
  -18.9222   38.6467  -22.9970 C   0  0  0  0  0  0  0  0  0  0  0  0
  -19.1491   39.0576  -21.5996 C   0  0  0  0  0  0  0  0  0  0  0  0
  -18.9220   38.1986  -20.7372 O   0  0  0  0  0  0  0  0  0  0  0  0
  -19.6037   40.3488  -21.1644 C   0  0  1  0  0  0  0  0  0  0  0  0
  -20.5460   40.2999  -19.9521 C   0  0  0  0  0  0  0  0  0  0  0  0
  -20.3979   41.6591  -19.2749 C   0  0  0  0  0  0  0  0  0  0  0  0
  -19.5422   42.4115  -20.2236 C   0  0  1  0  0  0  0  0  0  0  0  0
  -18.8874   43.6266  -19.7273 C   0  0  2  0  0  0  0  0  0  0  0  0
  -19.9202   44.7443  -19.7519 C   0  0  0  0  0  0  0  0  0  0  0  0
  -19.3627   46.0992  -19.5563 C   0  0  0  0  0  0  0  0  0  0  0  0
  -18.0638   46.3751  -20.2232 C   0  0  1  0  0  0  0  0  0  0  0  0
  -17.5125   47.6960  -19.7897 C   0  0  0  0  0  0  0  0  0  0  0  0
  -16.0855   47.8761  -20.1596 C   0  0  0  0  0  0  0  0  0  0  0  0
  -15.6576   49.0068  -20.3458 O   0  0  0  0  0  0  0  0  0  0  0  0
  -15.1316   46.7416  -20.3193 C   0  0  0  0  0  0  0  0  0  0  0  0
  -15.7989   45.4766  -20.7531 C   0  0  0  0  0  0  0  0  0  0  0  0
  -17.1044   45.2382  -20.0454 C   0  0  1  0  0  0  0  0  0  0  0  0
  -16.8139   45.0604  -18.5772 C   0  0  0  0  0  0  0  0  0  0  0  0
  -17.7802   44.0285  -20.6546 C   0  0  1  0  0  0  0  0  0  0  0  0
  -16.8231   42.9289  -20.9837 C   0  0  0  0  0  0  0  0  0  0  0  0
  -17.6349   41.8333  -21.6774 C   0  0  0  0  0  0  0  0  0  0  0  0
  -18.5679   41.3035  -20.6530 C   0  0  2  0  0  0  0  0  0  0  0  0
  -17.8452   40.8440  -19.4346 C   0  0  0  0  0  0  0  0  0  0  0  0
  1  2  1  0
  2  3  2  0
  4  2  1  1
  4  5  1  0
  5  6  1  0
  7  6  1  1
  7  8  1  0
  8  9  1  6
  9 10  1  0
 11 10  1  1
 11 12  1  0
 12 13  1  0
 13 14  2  0
 13 15  1  0
 15 16  1  0
 16 17  1  0
 17 18  1  1
 17 19  1  0
 19 20  1  1
 20 21  1  0
 21 22  1  0
 22 23  1  1
 22  4  1  0
 22  7  1  0
 19  8  1  0
 17 11  1  0
M  END
$$$$
