
     RDKit          3D

 24 27  0  0  0  0  0  0  0  0999 V2000
  -28.6391    7.6516  -26.4930 C   0  0  0  0  0  0  0  0  0  0  0  0
  -27.2979    7.9723  -26.6058 C   0  0  0  0  0  0  0  0  0  0  0  0
  -26.8173    8.9368  -25.7485 C   0  0  0  0  0  0  0  0  0  0  0  0
  -27.6411    9.5428  -24.8306 C   0  0  0  0  0  0  0  0  0  0  0  0
  -27.1159   10.5786  -23.9126 C   0  0  0  0  0  0  0  0  0  0  0  0
  -27.3419   10.5091  -22.5740 C   0  0  0  0  0  0  0  0  0  0  0  0
  -26.8614   11.4604  -21.7180 C   0  0  0  0  0  0  0  0  0  0  0  0
  -26.1337   12.5076  -22.2341 C   0  0  0  0  0  0  0  0  0  0  0  0
  -25.6211   13.5281  -21.2825 C   0  0  0  0  0  0  0  0  0  0  0  0
  -24.1450   13.4801  -21.2071 C   0  0  0  0  0  0  0  0  0  0  0  0
  -23.3906   14.1852  -22.1176 C   0  0  0  0  0  0  0  0  0  0  0  0
  -22.0005   14.1671  -22.0798 C   0  0  0  0  0  0  0  0  0  0  0  0
  -21.3650   13.4346  -21.1194 C   0  0  0  0  0  0  0  0  0  0  0  0
  -22.0858   12.7174  -20.1929 C   0  0  0  0  0  0  0  0  0  0  0  0
  -23.4743   12.7500  -20.2495 C   0  0  0  0  0  0  0  0  0  0  0  0
  -26.1416   14.8162  -21.6778 N   0  0  0  0  0  0  0  0  0  0  0  0
  -27.3597   15.3332  -21.4297 C   0  0  0  0  0  0  0  0  0  0  0  0
  -27.4185   16.5867  -21.9970 C   0  0  0  0  0  0  0  0  0  0  0  0
  -26.2449   16.8075  -22.5751 N   0  0  0  0  0  0  0  0  0  0  0  0
  -25.4607   15.7338  -22.3856 C   0  0  0  0  0  0  0  0  0  0  0  0
  -25.9010   12.5838  -23.5916 C   0  0  0  0  0  0  0  0  0  0  0  0
  -26.3956   11.6091  -24.4515 C   0  0  0  0  0  0  0  0  0  0  0  0
  -28.9746    9.2164  -24.7264 C   0  0  0  0  0  0  0  0  0  0  0  0
  -29.4587    8.2498  -25.5849 C   0  0  0  0  0  0  0  0  0  0  0  0
  1  2  2  0
  2  3  1  0
  3  4  2  0
  4  5  1  0
  5  6  2  0
  6  7  1  0
  7  8  2  0
  8  9  1  0
  9 10  1  0
 10 11  2  0
 11 12  1  0
 12 13  2  0
 13 14  1  0
 14 15  2  0
  9 16  1  0
 16 17  1  0
 17 18  2  0
 18 19  1  0
 19 20  2  0
  8 21  1  0
 21 22  2  0
  4 23  1  0
 23 24  2  0
 24  1  1  0
 22  5  1  0
 15 10  1  0
 20 16  1  0
M  END
$$$$
