
     RDKit          3D

 36 37  0  0  0  0  0  0  0  0999 V2000
  -24.5192   26.6336  -37.0324 C   0  0  0  0  0  0  0  0  0  0  0  0
  -25.8878   26.2076  -37.3952 C   0  0  0  0  0  0  0  0  0  0  0  0
  -26.7441   27.1523  -37.9728 C   0  0  0  0  0  0  0  0  0  0  0  0
  -28.0205   26.7926  -38.3115 C   0  0  0  0  0  0  0  0  0  0  0  0
  -28.9502   27.6995  -38.9033 N   0  0  0  0  0  0  0  0  0  0  0  0
  -28.4189   25.4940  -38.0671 C   0  0  0  0  0  0  0  0  0  0  0  0
  -29.7024   25.1251  -38.4094 C   0  0  0  0  0  0  0  0  0  0  0  0
  -30.1221   23.8342  -38.1790 C   0  0  0  0  0  0  0  0  0  0  0  0
  -29.2728   22.9217  -37.6144 C   0  0  0  0  0  0  0  0  0  0  0  0
  -27.9703   23.3057  -37.2697 C   0  0  0  0  0  0  0  0  0  0  0  0
  -27.5276   24.5828  -37.4875 C   0  0  0  0  0  0  0  0  0  0  0  0
  -26.2645   24.9390  -37.1521 N   0  0  0  0  0  4  0  0  0  0  0  0
  -25.3676   24.0010  -36.5422 C   0  0  0  0  0  0  0  0  0  0  0  0
  -24.5887   23.1703  -37.5278 C   0  0  0  0  0  0  0  0  0  0  0  0
  -23.6747   22.2188  -36.7506 C   0  0  0  0  0  0  0  0  0  0  0  0
  -22.8807   21.3720  -37.7327 C   0  0  0  0  0  0  0  0  0  0  0  0
  -21.9956   20.4517  -36.8877 C   0  0  0  0  0  0  0  0  0  0  0  0
  -21.1709   19.5737  -37.7955 C   0  0  0  0  0  0  0  0  0  0  0  0
  -20.3068   18.6461  -36.9834 C   0  0  0  0  0  0  0  0  0  0  0  0
  -19.3910   19.4395  -36.1248 C   0  0  0  0  0  0  0  0  0  0  0  0
  -18.4547   18.6119  -35.2625 C   0  0  0  0  0  0  0  0  0  0  0  0
  -17.5382   17.7210  -36.0734 C   0  0  0  0  0  0  0  0  0  0  0  0
  -16.6993   16.9962  -35.1731 N   0  0  0  0  0  4  0  0  0  0  0  0
  -15.4931   17.5218  -34.8913 C   0  0  0  0  0  0  0  0  0  0  0  0
  -15.0343   18.7796  -35.5143 C   0  0  0  0  0  0  0  0  0  0  0  0
  -14.6588   16.8600  -34.0110 C   0  0  0  0  0  0  0  0  0  0  0  0
  -15.0510   15.6649  -33.4185 C   0  0  0  0  0  0  0  0  0  0  0  0
  -14.2256   14.9628  -32.5163 N   0  0  0  0  0  0  0  0  0  0  0  0
  -16.2945   15.1659  -33.7379 C   0  0  0  0  0  0  0  0  0  0  0  0
  -16.7310   13.9877  -33.1758 C   0  0  0  0  0  0  0  0  0  0  0  0
  -17.9785   13.5020  -33.5012 C   0  0  0  0  0  0  0  0  0  0  0  0
  -18.7956   14.1544  -34.3650 C   0  0  0  0  0  0  0  0  0  0  0  0
  -18.3692   15.3400  -34.9376 C   0  0  0  0  0  0  0  0  0  0  0  0
  -17.1300   15.8450  -34.6299 C   0  0  0  0  0  0  0  0  0  0  0  0
  -21.7733   20.6549  -36.2538 Cl  0  0  0  0  0 15  0  0  0  0  0  0
  -21.7733   20.6549  -36.2538 Cl  0  0  0  0  0 15  0  0  0  0  0  0
  1  2  1  0
  2  3  2  0
  3  4  1  0
  4  5  1  0
  4  6  2  0
  6  7  1  0
  7  8  2  0
  8  9  1  0
  9 10  2  0
 10 11  1  0
 11 12  2  0
 12 13  1  0
 13 14  1  0
 14 15  1  0
 15 16  1  0
 16 17  1  0
 17 18  1  0
 18 19  1  0
 19 20  1  0
 20 21  1  0
 21 22  1  0
 22 23  1  0
 23 24  2  0
 24 25  1  0
 24 26  1  0
 26 27  2  0
 27 28  1  0
 27 29  1  0
 29 30  2  0
 30 31  1  0
 31 32  2  0
 32 33  1  0
 33 34  2  0
 12  2  1  0
 34 23  1  0
 11  6  1  0
 34 29  1  0
M  CHG  4  12   1  23   1  35  -1  36  -1
M  END
$$$$
