
     RDKit          3D

 23 26  0  0  0  0  0  0  0  0999 V2000
    7.7025   15.9024  -29.0198 C   0  0  0  0  0  0  0  0  0  0  0  0
    6.9900   16.4702  -30.1946 C   0  0  0  0  0  0  0  0  0  0  0  0
    6.6283   17.7662  -30.3066 N   0  0  0  0  0  0  0  0  0  0  0  0
    6.0045   17.9714  -31.4738 C   0  0  0  0  0  0  0  0  0  0  0  0
    5.4480   19.0854  -32.0681 C   0  0  0  0  0  0  0  0  0  0  0  0
    4.8500   19.0041  -33.3200 C   0  0  0  0  0  0  0  0  0  0  0  0
    4.8149   17.7966  -33.9705 C   0  0  0  0  0  0  0  0  0  0  0  0
    5.3752   16.6928  -33.3636 C   0  0  0  0  0  0  0  0  0  0  0  0
    5.9759   16.7403  -32.1227 C   0  0  0  0  0  0  0  0  0  0  0  0
    6.5899   15.7919  -31.3317 C   0  0  0  0  0  0  0  0  0  0  0  0
    6.7850   14.3453  -31.6277 C   0  0  0  0  0  0  0  0  0  0  0  0
    5.5341   13.6192  -31.5586 N   0  0  0  0  0  0  0  0  0  0  0  0
    5.2822   12.9315  -32.7827 C   0  0  0  0  0  0  0  0  0  0  0  0
    6.1100   11.6388  -32.7762 C   0  0  0  0  0  0  0  0  0  0  0  0
    5.5333   10.8143  -31.7549 N   0  0  0  0  0  0  0  0  0  0  0  0
    5.6531    9.4082  -31.7908 C   0  0  0  0  0  0  0  0  0  0  0  0
    5.8323    8.7126  -32.9758 C   0  0  0  0  0  0  0  0  0  0  0  0
    5.9492    7.3345  -33.0452 C   0  0  0  0  0  0  0  0  0  0  0  0
    5.8803    6.6349  -31.8533 C   0  0  0  0  0  0  0  0  0  0  0  0
    5.7020    7.3384  -30.6828 C   0  0  0  0  0  0  0  0  0  0  0  0
    5.5916    8.6726  -30.6412 N   0  0  0  0  0  0  0  0  0  0  0  0
    4.8217   11.4408  -30.6718 C   0  0  0  0  0  0  0  0  0  0  0  0
    5.3939   12.8149  -30.3954 C   0  0  0  0  0  0  0  0  0  0  0  0
  1  2  1  0
  2  3  1  0
  3  4  1  0
  4  5  2  0
  5  6  1  0
  6  7  2  0
  7  8  1  0
  8  9  2  0
  9 10  1  0
 10 11  1  0
 11 12  1  0
 12 13  1  0
 13 14  1  0
 14 15  1  0
 15 16  1  0
 16 17  2  0
 17 18  1  0
 18 19  2  0
 19 20  1  0
 20 21  2  0
 15 22  1  0
 22 23  1  0
 10  2  2  0
 23 12  1  0
  9  4  1  0
 21 16  1  0
M  END
$$$$
