
     RDKit          3D

 23 25  0  0  0  0  0  0  0  0999 V2000
  -25.5335   16.5692  -25.3587 N   0  0  0  0  0  0  0  0  0  0  0  0
  -25.5134   15.9049  -24.3960 C   0  0  0  0  0  0  0  0  0  0  0  0
  -25.4889   15.1172  -23.2112 C   0  0  0  0  0  0  0  0  0  0  0  0
  -24.3022   14.8269  -22.6460 C   0  0  0  0  0  0  0  0  0  0  0  0
  -24.2208   13.9088  -21.5534 C   0  0  0  0  0  0  0  0  0  0  0  0
  -24.4654   14.3357  -20.2540 C   0  0  0  0  0  0  0  0  0  0  0  0
  -24.3995   13.4239  -19.2284 C   0  0  0  0  0  0  0  0  0  0  0  0
  -24.0928   12.0946  -19.4790 C   0  0  0  0  0  0  0  0  0  0  0  0
  -24.0426   11.2236  -18.3897 O   0  0  0  0  0  0  0  0  0  0  0  0
  -23.8542   11.6861  -20.7589 C   0  0  0  0  0  0  0  0  0  0  0  0
  -23.5441   10.3340  -20.9943 O   0  0  0  0  0  0  0  0  0  0  0  0
  -23.9147   12.5802  -21.8062 C   0  0  0  0  0  0  0  0  0  0  0  0
  -26.6470   14.5294  -22.5610 C   0  0  0  0  0  0  0  0  0  0  0  0
  -26.6753   13.2958  -22.2875 O   0  0  0  0  0  0  0  0  0  0  0  0
  -27.7800   15.3170  -22.2164 N   0  0  0  0  0  0  0  0  0  0  0  0
  -28.7424   15.1881  -21.1517 C   0  0  0  0  0  0  0  0  0  0  0  0
  -30.0199   15.6651  -21.8429 C   0  0  0  0  0  0  0  0  0  0  0  0
  -29.5605   16.7199  -22.7431 C   0  0  0  0  0  0  0  0  0  0  0  0
  -30.2145   17.7820  -23.3346 C   0  0  0  0  0  0  0  0  0  0  0  0
  -29.4926   18.5943  -24.1707 C   0  0  0  0  0  0  0  0  0  0  0  0
  -28.1500   18.3470  -24.4064 C   0  0  0  0  0  0  0  0  0  0  0  0
  -27.4969   17.2896  -23.8171 C   0  0  0  0  0  0  0  0  0  0  0  0
  -28.2201   16.4692  -22.9745 C   0  0  0  0  0  0  0  0  0  0  0  0
  1  2  3  0
  2  3  1  0
  3  4  2  0
  4  5  1  0
  5  6  2  0
  6  7  1  0
  7  8  2  0
  8  9  1  0
  8 10  1  0
 10 11  1  0
 10 12  2  0
  3 13  1  0
 13 14  2  0
 13 15  1  0
 15 16  1  0
 16 17  1  0
 17 18  1  0
 18 19  2  0
 19 20  1  0
 20 21  2  0
 21 22  1  0
 22 23  2  0
 12  5  1  0
 23 15  1  0
 23 18  1  0
M  END
$$$$
