
     RDKit          3D

 34 36  0  0  0  0  0  0  0  0999 V2000
  -28.7484    9.6751  -20.4099 N   0  0  0  0  0  0  0  0  0  0  0  0
  -29.3685   10.8710  -20.0229 C   0  0  0  0  0  0  0  0  0  0  0  0
  -28.9595   11.5488  -19.0708 O   0  0  0  0  0  0  0  0  0  0  0  0
  -30.5849   11.3829  -20.7733 C   0  0  1  0  0  0  0  0  0  0  0  0
  -31.8276   11.1142  -20.0375 C   0  0  0  0  0  0  0  0  0  0  0  0
  -32.0072    9.6513  -19.7499 C   0  0  0  0  0  0  0  0  0  0  0  0
  -33.3038    9.4036  -18.9669 C   0  0  0  0  0  0  0  0  0  0  0  0
  -33.4853    8.0508  -18.7406 F   0  0  0  0  0  0  0  0  0  0  0  0
  -33.1549    9.9886  -17.7290 F   0  0  0  0  0  0  0  0  0  0  0  0
  -34.3788    9.9883  -19.5916 F   0  0  0  0  0  0  0  0  0  0  0  0
  -30.3391   12.5299  -21.5145 N   0  0  0  0  0  0  0  0  0  0  0  0
  -30.5417   13.8248  -20.9346 C   0  0  0  0  0  0  0  0  0  0  0  0
  -29.4633   14.8027  -21.1960 C   0  0  0  0  0  0  0  0  0  0  0  0
  -28.3031   14.3622  -21.7827 C   0  0  0  0  0  0  0  0  0  0  0  0
  -27.2418   15.1960  -22.0782 C   0  0  0  0  0  0  0  0  0  0  0  0
  -27.3413   16.5338  -21.7747 C   0  0  0  0  0  0  0  0  0  0  0  0
  -26.2223   17.4208  -22.0873 C   0  0  0  0  0  0  0  0  0  0  0  0
  -24.9954   17.1109  -22.5122 N   0  0  0  0  0  0  0  0  0  0  0  0
  -24.3024   18.2607  -22.6680 C   0  0  0  0  0  0  0  0  0  0  0  0
  -25.1012   19.2490  -22.3411 O   0  0  0  0  0  0  0  0  0  0  0  0
  -26.2430   18.7657  -21.9947 N   0  0  0  0  0  0  0  0  0  0  0  0
  -28.4830   16.9983  -21.1914 C   0  0  0  0  0  0  0  0  0  0  0  0
  -29.5524   16.1487  -20.8954 C   0  0  0  0  0  0  0  0  0  0  0  0
  -30.6673   16.6536  -20.3146 F   0  0  0  0  0  0  0  0  0  0  0  0
  -31.0427   12.4602  -23.1059 S   0  0  0  0  0  6  0  0  0  0  0  0
  -30.5846   13.7638  -23.7639 O   0  0  0  0  0  0  0  0  0  0  0  0
  -32.5366   12.5752  -23.0572 O   0  0  0  0  0  0  0  0  0  0  0  0
  -30.5032   11.1053  -24.0435 C   0  0  0  0  0  0  0  0  0  0  0  0
  -29.1630   10.9259  -24.3461 C   0  0  0  0  0  0  0  0  0  0  0  0
  -28.7253    9.8407  -25.0889 C   0  0  0  0  0  0  0  0  0  0  0  0
  -29.6244    8.9110  -25.5443 C   0  0  0  0  0  0  0  0  0  0  0  0
  -29.0771    7.5468  -26.4776 Cl  0  0  0  0  0  0  0  0  0  0  0  0
  -30.9561    9.0625  -25.2603 C   0  0  0  0  0  0  0  0  0  0  0  0
  -31.3823   10.1582  -24.5125 C   0  0  0  0  0  0  0  0  0  0  0  0
  1  2  1  0
  2  3  2  0
  2  4  1  0
  4  5  1  1
  5  6  1  0
  6  7  1  0
  7  8  1  0
  7  9  1  0
  7 10  1  0
  4 11  1  0
 11 12  1  0
 12 13  1  0
 13 14  2  0
 14 15  1  0
 15 16  2  0
 16 17  1  0
 17 18  1  0
 18 19  2  0
 19 20  1  0
 20 21  1  0
 16 22  1  0
 22 23  2  0
 23 24  1  0
 11 25  1  0
 25 26  2  0
 25 27  2  0
 25 28  1  0
 28 29  2  0
 29 30  1  0
 30 31  2  0
 31 32  1  0
 31 33  1  0
 33 34  2  0
 23 13  1  0
 34 28  1  0
 21 17  2  0
M  END
$$$$
