
     RDKit          3D

 13 14  0  0  0  0  0  0  0  0999 V2000
  -17.0240   37.4569  -20.5810 O   0  0  0  0  0  0  0  0  0  0  0  0
  -18.1948   37.1129  -20.8690 C   0  0  0  0  0  0  0  0  0  0  0  0
  -19.3819   37.3212  -20.1210 N   0  0  0  0  0  0  0  0  0  0  0  0
  -20.4637   36.7550  -20.8506 C   0  0  0  0  0  0  0  0  0  0  0  0
  -21.6449   36.5505  -20.4683 O   0  0  0  0  0  0  0  0  0  0  0  0
  -19.9863   36.4084  -22.2290 C   0  0  0  0  0  0  0  0  0  0  0  0
  -20.4379   37.4714  -23.1704 C   0  0  0  0  0  0  0  0  0  0  0  0
  -20.0962   38.7862  -22.8948 C   0  0  0  0  0  0  0  0  0  0  0  0
  -20.4890   39.8074  -23.7336 C   0  0  0  0  0  0  0  0  0  0  0  0
  -21.2385   39.5270  -24.8747 C   0  0  0  0  0  0  0  0  0  0  0  0
  -21.5883   38.2232  -25.1656 C   0  0  0  0  0  0  0  0  0  0  0  0
  -21.1725   37.2327  -24.2964 C   0  0  0  0  0  0  0  0  0  0  0  0
  -18.5552   36.4187  -22.0560 N   0  0  0  0  0  0  0  0  0  0  0  0
  1  2  2  0
  2  3  1  0
  3  4  1  0
  4  5  2  0
  4  6  1  0
  6  7  1  0
  7  8  2  0
  8  9  1  0
  9 10  2  0
 10 11  1  0
 11 12  2  0
  6 13  1  0
 13  2  1  0
 12  7  1  0
M  END
$$$$
