
     RDKit          3D

 25 26  0  0  0  0  0  0  0  0999 V2000
  -14.0812   15.1434  -26.9013 O   0  0  0  0  0  0  0  0  0  0  0  0
  -15.2274   14.6262  -27.7693 S   0  0  0  0  0  6  0  0  0  0  0  0
  -16.0732   13.6934  -26.9087 O   0  0  0  0  0  0  0  0  0  0  0  0
  -16.1363   15.8945  -28.3992 N   0  0  0  0  0  0  0  0  0  0  0  0
  -17.2891   15.8789  -29.2133 C   0  0  0  0  0  0  0  0  0  0  0  0
  -17.3917   16.8052  -30.2637 C   0  0  0  0  0  0  0  0  0  0  0  0
  -18.4776   16.9041  -31.0885 C   0  0  0  0  0  0  0  0  0  0  0  0
  -19.5556   16.0450  -30.8923 C   0  0  0  0  0  0  0  0  0  0  0  0
  -20.6863   16.2261  -31.8330 C   0  0  0  0  0  0  0  0  0  0  0  0
  -20.3350   17.1240  -32.8671 O   0  0  0  0  0  0  0  0  0  0  0  0
  -21.8759   16.8873  -31.1187 C   0  0  0  0  0  0  0  0  0  0  0  0
  -22.3575   16.0036  -30.1729 F   0  0  0  0  0  0  0  0  0  0  0  0
  -21.4157   17.9996  -30.4051 F   0  0  0  0  0  0  0  0  0  0  0  0
  -22.8188   17.3296  -31.9907 F   0  0  0  0  0  0  0  0  0  0  0  0
  -21.2095   14.9679  -32.4355 C   0  0  0  0  0  0  0  0  0  0  0  0
  -20.1342   14.4134  -33.1551 F   0  0  0  0  0  0  0  0  0  0  0  0
  -21.6245   14.0252  -31.5498 F   0  0  0  0  0  0  0  0  0  0  0  0
  -22.1432   15.2787  -33.4070 F   0  0  0  0  0  0  0  0  0  0  0  0
  -19.4901   15.1385  -29.8889 C   0  0  0  0  0  0  0  0  0  0  0  0
  -18.3708   15.0580  -29.0624 C   0  0  0  0  0  0  0  0  0  0  0  0
  -14.4735   13.5573  -29.0002 C   0  0  0  0  0  0  0  0  0  0  0  0
  -13.4594   13.7934  -29.8278 C   0  0  0  0  0  0  0  0  0  0  0  0
  -13.0858   12.7880  -30.6732 C   0  0  0  0  0  0  0  0  0  0  0  0
  -13.7592   11.6795  -30.5945 C   0  0  0  0  0  0  0  0  0  0  0  0
  -14.9885   11.9314  -29.3249 S   0  0  0  0  0  0  0  0  0  0  0  0
  1  2  2  0
  2  3  2  0
  2  4  1  0
  4  5  1  0
  5  6  2  0
  6  7  1  0
  7  8  2  0
  8  9  1  0
  9 10  1  0
  9 11  1  0
 11 12  1  0
 11 13  1  0
 11 14  1  0
  9 15  1  0
 15 16  1  0
 15 17  1  0
 15 18  1  0
  8 19  1  0
 19 20  2  0
  2 21  1  0
 21 22  2  0
 22 23  1  0
 23 24  2  0
 24 25  1  0
 20  5  1  0
 25 21  1  0
M  END
$$$$
