
     RDKit          3D

 29 32  0  0  0  0  0  0  0  0999 V2000
  -13.7460   43.4891  -20.1752 O   0  0  0  0  0  0  0  0  0  0  0  0
  -14.5319   44.2957  -19.6304 C   0  0  0  0  0  0  0  0  0  0  0  0
  -15.9831   44.4028  -19.8870 C   0  0  0  0  0  0  0  0  0  0  0  0
  -16.5385   43.1407  -20.4527 C   0  0  0  0  0  0  0  0  0  0  0  0
  -17.9977   43.0502  -20.1884 C   0  0  0  0  0  0  0  0  0  0  0  0
  -18.6006   41.8501  -20.7323 N   0  0  0  0  0  0  0  0  0  0  0  0
  -18.3409   40.7019  -19.8500 C   0  0  0  0  0  0  0  0  0  0  0  0
  -19.5033   39.7639  -20.0813 C   0  0  0  0  0  0  0  0  0  0  0  0
  -19.7397   39.6474  -21.5488 C   0  0  0  0  0  0  0  0  0  0  0  0
  -18.6234   40.1465  -22.4237 C   0  0  0  0  0  0  0  0  0  0  0  0
  -18.0697   41.4783  -22.0197 C   0  0  0  0  0  0  0  0  0  0  0  0
  -20.9500   40.4540  -21.9296 C   0  0  0  0  0  0  0  0  0  0  0  0
  -20.9507   41.7036  -22.0468 O   0  0  0  0  0  0  0  0  0  0  0  0
  -21.9988   39.5145  -22.1062 N   0  0  0  0  0  0  0  0  0  0  0  0
  -21.3713   38.2832  -22.5138 C   0  0  0  0  0  0  0  0  0  0  0  0
  -20.0456   38.2925  -21.8878 N   0  0  0  0  0  0  0  0  0  0  0  0
  -19.2825   37.1086  -21.6995 C   0  0  0  0  0  0  0  0  0  0  0  0
  -19.7903   35.8660  -22.0886 C   0  0  0  0  0  0  0  0  0  0  0  0
  -19.0964   34.6911  -21.9302 C   0  0  0  0  0  0  0  0  0  0  0  0
  -17.8422   34.7398  -21.3617 C   0  0  0  0  0  0  0  0  0  0  0  0
  -17.2801   35.9302  -20.9550 C   0  0  0  0  0  0  0  0  0  0  0  0
  -18.0296   37.0837  -21.1411 C   0  0  0  0  0  0  0  0  0  0  0  0
  -13.9254   45.2151  -18.6424 C   0  0  0  0  0  0  0  0  0  0  0  0
  -14.6685   46.2256  -18.0658 C   0  0  0  0  0  0  0  0  0  0  0  0
  -14.1240   47.1049  -17.1342 C   0  0  0  0  0  0  0  0  0  0  0  0
  -12.8121   46.9707  -16.7730 C   0  0  0  0  0  0  0  0  0  0  0  0
  -12.2375   47.8046  -15.8685 F   0  0  0  0  0  0  0  0  0  0  0  0
  -12.0397   45.9701  -17.3307 C   0  0  0  0  0  0  0  0  0  0  0  0
  -12.6079   45.1116  -18.2534 C   0  0  0  0  0  0  0  0  0  0  0  0
  1  2  2  0
  2  3  1  0
  3  4  1  0
  4  5  1  0
  5  6  1  0
  6  7  1  0
  7  8  1  0
  8  9  1  0
  9 10  1  0
 10 11  1  0
  9 12  1  0
 12 13  2  0
 12 14  1  0
 14 15  1  0
 15 16  1  0
 16 17  1  0
 17 18  2  0
 18 19  1  0
 19 20  2  0
 20 21  1  0
 21 22  2  0
  2 23  1  0
 23 24  2  0
 24 25  1  0
 25 26  2  0
 26 27  1  0
 26 28  1  0
 28 29  2  0
 11  6  1  0
 22 17  1  0
 29 23  1  0
 16  9  1  0
M  END
$$$$
