
     RDKit          3D

 35 39  0  0  0  0  0  0  0  0999 V2000
  -23.4311   23.5406  -25.3950 C   0  0  0  0  0  0  0  0  0  0  0  0
  -24.3817   23.0764  -26.4321 C   0  0  0  0  0  0  0  0  0  0  0  0
  -24.9921   24.0157  -27.2660 C   0  0  0  0  0  0  0  0  0  0  0  0
  -25.8691   23.5534  -28.2172 C   0  0  0  0  0  0  0  0  0  0  0  0
  -26.5081   24.4731  -29.0810 N   0  0  0  0  0  0  0  0  0  0  0  0
  -26.2586   25.8613  -28.9384 C   0  0  0  0  0  0  0  0  0  0  0  0
  -27.2914   26.7362  -28.6210 C   0  0  0  0  0  0  0  0  0  0  0  0
  -27.0419   28.0952  -28.4819 C   0  0  0  0  0  0  0  0  0  0  0  0
  -25.7792   28.5949  -28.6543 C   0  0  0  0  0  0  0  0  0  0  0  0
  -25.4694   29.9781  -28.5237 N   0  0  0  0  0  0  0  0  0  0  0  0
  -24.2282   30.4405  -28.0328 C   0  0  0  0  0  0  0  0  0  0  0  0
  -23.3503   29.5591  -27.8363 O   0  0  0  0  0  0  0  0  0  0  0  0
  -23.9312   31.8411  -27.7547 C   0  0  0  0  0  0  0  0  0  0  0  0
  -24.3708   32.3842  -26.5478 C   0  0  0  0  0  0  0  0  0  0  0  0
  -24.1254   33.7016  -26.2278 C   0  0  0  0  0  0  0  0  0  0  0  0
  -23.4326   34.5290  -27.0977 C   0  0  0  0  0  0  0  0  0  0  0  0
  -23.2278   35.8844  -26.7173 N   0  0  0  0  0  0  0  0  0  0  0  0
  -21.9760   36.4914  -26.9691 C   0  0  0  0  0  0  0  0  0  0  0  0
  -20.8804   35.6671  -27.0670 C   0  0  0  0  0  0  0  0  0  0  0  0
  -19.6172   36.1997  -27.3159 C   0  0  0  0  0  0  0  0  0  0  0  0
  -19.4801   37.5290  -27.4597 N   0  0  0  0  0  0  0  0  0  0  0  0
  -20.5224   38.3793  -27.3736 C   0  0  0  0  0  0  0  0  0  0  0  0
  -20.2924   39.7267  -27.5443 C   0  0  0  0  0  0  0  0  0  0  0  0
  -21.3912   40.5623  -27.4595 C   0  0  0  0  0  0  0  0  0  0  0  0
  -22.6547   40.0656  -27.2158 C   0  0  0  0  0  0  0  0  0  0  0  0
  -22.8545   38.6903  -27.0465 C   0  0  0  0  0  0  0  0  0  0  0  0
  -21.7879   37.8464  -27.1246 C   0  0  0  0  0  0  0  0  0  0  0  0
  -23.0018   33.9885  -28.2861 C   0  0  0  0  0  0  0  0  0  0  0  0
  -23.2470   32.6737  -28.6044 C   0  0  0  0  0  0  0  0  0  0  0  0
  -24.7748   27.7026  -28.9687 C   0  0  0  0  0  0  0  0  0  0  0  0
  -24.9901   26.3521  -29.1132 C   0  0  0  0  0  0  0  0  0  0  0  0
  -26.1449   22.2505  -28.3595 N   0  0  0  0  0  0  0  0  0  0  0  0
  -25.5449   21.3485  -27.5424 C   0  0  0  0  0  0  0  0  0  0  0  0
  -25.8329   19.9668  -27.6864 N   0  0  0  0  0  0  0  0  0  0  0  0
  -24.6986   21.7859  -26.6228 N   0  0  0  0  0  0  0  0  0  0  0  0
  1  2  1  0
  2  3  2  0
  3  4  1  0
  4  5  1  0
  5  6  1  0
  6  7  2  0
  7  8  1  0
  8  9  2  0
  9 10  1  0
 10 11  1  0
 11 12  2  0
 11 13  1  0
 13 14  2  0
 14 15  1  0
 15 16  2  0
 16 17  1  0
 17 18  1  0
 18 19  2  0
 19 20  1  0
 20 21  2  0
 21 22  1  0
 22 23  2  0
 23 24  1  0
 24 25  2  0
 25 26  1  0
 26 27  2  0
 16 28  1  0
 28 29  2  0
  9 30  1  0
 30 31  2  0
  4 32  2  0
 32 33  1  0
 33 34  1  0
 33 35  2  0
 35  2  1  0
 31  6  1  0
 29 13  1  0
 27 18  1  0
 27 22  1  0
M  END
$$$$
