
     RDKit          3D

 37 40  0  0  0  0  0  0  0  0999 V2000
  -19.5084   24.1483  -43.6721 C   0  0  0  0  0  0  0  0  0  0  0  0
  -19.6870   23.0553  -42.7812 O   0  0  0  0  0  0  0  0  0  0  0  0
  -18.7710   22.7356  -41.8000 C   0  0  0  0  0  0  0  0  0  0  0  0
  -17.5730   23.0560  -41.9233 O   0  0  0  0  0  0  0  0  0  0  0  0
  -19.1600   22.0093  -40.5746 C   0  0  0  0  0  0  0  0  0  0  0  0
  -18.3995   21.0307  -40.1093 C   0  0  0  0  0  0  0  0  0  0  0  0
  -18.8797   19.9465  -39.2880 C   0  0  0  0  0  0  0  0  0  0  0  0
  -20.1922   19.8182  -38.9084 C   0  0  0  0  0  0  0  0  0  0  0  0
  -20.5533   18.7439  -38.1249 C   0  0  0  0  0  0  0  0  0  0  0  0
  -19.6136   17.7917  -37.7133 C   0  0  0  0  0  0  0  0  0  0  0  0
  -18.2982   17.9120  -38.0886 C   0  0  0  0  0  0  0  0  0  0  0  0
  -17.3149   16.9441  -37.6853 N   0  0  0  0  0  0  0  0  0  0  0  0
  -16.6416   16.1542  -38.6881 C   0  0  0  0  0  0  0  0  0  0  0  0
  -15.4433   16.8210  -39.2227 C   0  0  0  0  0  0  0  0  0  0  0  0
  -14.8597   17.9440  -38.7245 C   0  0  0  0  0  0  0  0  0  0  0  0
  -13.7193   18.5109  -39.3195 C   0  0  0  0  0  0  0  0  0  0  0  0
  -13.1587   17.9364  -40.4331 C   0  0  0  0  0  0  0  0  0  0  0  0
  -11.9712   18.4849  -41.1136 C   0  0  0  0  0  0  0  0  0  0  0  0
  -11.8692   18.6439  -42.4642 C   0  0  0  0  0  0  0  0  0  0  0  0
  -10.7429   19.1721  -43.0846 C   0  0  0  0  0  0  0  0  0  0  0  0
   -9.6561   19.5655  -42.3312 C   0  0  0  0  0  0  0  0  0  0  0  0
   -8.4774   20.1096  -42.8560 N   0  0  0  0  0  0  0  0  0  0  0  0
   -7.4225   20.5553  -41.9921 C   0  0  0  0  0  0  0  0  0  0  0  0
   -8.3032   20.2281  -44.2852 C   0  0  0  0  0  0  0  0  0  0  0  0
   -9.7616   19.4022  -40.9547 C   0  0  0  0  0  0  0  0  0  0  0  0
  -10.8828   18.8778  -40.3538 C   0  0  0  0  0  0  0  0  0  0  0  0
  -13.7281   16.7996  -40.9568 C   0  0  0  0  0  0  0  0  0  0  0  0
  -14.8438   16.2597  -40.3617 C   0  0  0  0  0  0  0  0  0  0  0  0
  -16.9920   16.8565  -36.3261 C   0  0  0  0  0  0  0  0  0  0  0  0
  -15.7453   16.5639  -36.1024 O   0  0  0  0  0  0  0  0  0  0  0  0
  -17.7973   17.0396  -35.1361 C   0  0  0  0  0  0  0  0  0  0  0  0
  -17.4810   16.0863  -33.9958 C   0  0  0  0  0  0  0  0  0  0  0  0
  -18.7550   16.0542  -33.1434 C   0  0  0  0  0  0  0  0  0  0  0  0
  -19.0943   17.4449  -32.6500 C   0  0  0  0  0  0  0  0  0  0  0  0
  -19.2872   18.4115  -33.7948 C   0  0  0  0  0  0  0  0  0  0  0  0
  -17.9621   18.4078  -34.5862 C   0  0  0  0  0  0  0  0  0  0  0  0
  -17.9512   18.9844  -38.8681 C   0  0  0  0  0  0  0  0  0  0  0  0
  1  2  1  0
  2  3  1  0
  3  4  2  0
  3  5  1  0
  5  6  2  0
  6  7  1  0
  7  8  2  0
  8  9  1  0
  9 10  2  0
 10 11  1  0
 11 12  1  0
 12 13  1  0
 13 14  1  0
 14 15  2  0
 15 16  1  0
 16 17  2  0
 17 18  1  0
 18 19  2  0
 19 20  1  0
 20 21  2  0
 21 22  1  0
 22 23  1  0
 22 24  1  0
 21 25  1  0
 25 26  2  0
 17 27  1  0
 27 28  2  0
 12 29  1  0
 29 30  2  0
 29 31  1  0
 31 32  1  0
 32 33  1  0
 33 34  1  0
 34 35  1  0
 35 36  1  0
 11 37  2  0
 37  7  1  0
 28 14  1  0
 36 31  1  0
 26 18  1  0
M  END
$$$$
