
     RDKit          3D

 22 24  0  0  0  0  0  0  0  0999 V2000
  -19.4954   23.5682  -43.7036 C   0  0  0  0  0  0  0  0  0  0  0  0
  -19.6159   22.8686  -42.4634 O   0  0  0  0  0  0  0  0  0  0  0  0
  -18.7440   21.8241  -42.1497 C   0  0  0  0  0  0  0  0  0  0  0  0
  -17.7719   21.5955  -42.8915 O   0  0  0  0  0  0  0  0  0  0  0  0
  -18.9641   21.0389  -41.0046 N   0  0  0  0  0  0  0  0  0  0  0  0
  -18.0256   20.0744  -40.5478 C   0  0  0  0  0  0  0  0  0  0  0  0
  -18.1268   19.3613  -39.3844 N   0  0  0  0  0  0  0  0  0  0  0  0
  -17.0793   18.5383  -39.2335 C   0  0  0  0  0  0  0  0  0  0  0  0
  -16.6848   17.6300  -38.2694 C   0  0  0  0  0  0  0  0  0  0  0  0
  -15.4995   16.9360  -38.4311 C   0  0  0  0  0  0  0  0  0  0  0  0
  -14.6852   17.1091  -39.5188 C   0  0  0  0  0  0  0  0  0  0  0  0
  -13.3947   16.4069  -39.6741 C   0  0  0  0  0  0  0  0  0  0  0  0
  -13.3156   15.2021  -39.3115 O   0  0  0  0  0  0  0  0  0  0  0  0
  -12.2440   17.0987  -40.2373 C   0  0  0  0  0  0  0  0  0  0  0  0
  -11.4283   16.5884  -41.2208 C   0  0  0  0  0  0  0  0  0  0  0  0
  -10.3666   17.3446  -41.7163 C   0  0  0  0  0  0  0  0  0  0  0  0
  -10.1162   18.6222  -41.2258 C   0  0  0  0  0  0  0  0  0  0  0  0
  -10.9268   19.1332  -40.2472 C   0  0  0  0  0  0  0  0  0  0  0  0
  -11.9826   18.3663  -39.7626 C   0  0  0  0  0  0  0  0  0  0  0  0
  -15.1000   18.0243  -40.4751 C   0  0  0  0  0  0  0  0  0  0  0  0
  -16.2755   18.7227  -40.3299 C   0  0  0  0  0  0  0  0  0  0  0  0
  -16.8789   19.6651  -41.1142 N   0  0  0  0  0  0  0  0  0  0  0  0
  1  2  1  0
  2  3  1  0
  3  4  2  0
  3  5  1  0
  5  6  1  0
  6  7  2  0
  7  8  1  0
  8  9  2  0
  9 10  1  0
 10 11  2  0
 11 12  1  0
 12 13  2  0
 12 14  1  0
 14 15  2  0
 15 16  1  0
 16 17  2  0
 17 18  1  0
 18 19  2  0
 11 20  1  0
 20 21  2  0
 21 22  1  0
 22  6  1  0
 21  8  1  0
 19 14  1  0
M  END
$$$$
