
     RDKit          3D

 27 29  0  0  0  0  0  0  0  0999 V2000
  -14.0375    3.1897  -30.6017 C   0  0  0  0  0  0  0  0  0  0  0  0
  -15.4405    3.2610  -30.6775 O   0  0  0  0  0  0  0  0  0  0  0  0
  -16.2270    2.2644  -31.2494 C   0  0  0  0  0  0  0  0  0  0  0  0
  -15.6851    1.0355  -31.5613 C   0  0  0  0  0  0  0  0  0  0  0  0
  -16.4661    0.0492  -32.1281 C   0  0  0  0  0  0  0  0  0  0  0  0
  -15.9403   -1.2313  -32.4639 N   0  0  0  0  0  0  0  0  0  0  0  0
  -14.5975   -1.5292  -32.1080 C   0  0  0  0  0  0  0  0  0  0  0  0
  -14.0841   -2.8511  -32.4757 C   0  0  0  0  0  0  0  0  0  0  0  0
  -14.0608   -3.9105  -31.6316 C   0  0  0  0  0  0  0  0  0  0  0  0
  -13.5524   -5.1458  -32.0517 C   0  0  0  0  0  0  0  0  0  0  0  0
  -13.0623   -5.3264  -33.3263 C   0  0  0  0  0  0  0  0  0  0  0  0
  -12.5744   -6.5295  -33.7063 N   0  0  0  0  0  0  0  0  0  0  0  0
  -12.0889   -6.7296  -34.9424 C   0  0  0  0  0  0  0  0  0  0  0  0
  -11.5771   -8.0092  -35.3269 N   0  0  0  0  0  0  0  0  0  0  0  0
  -12.1089   -5.6911  -35.7773 N   0  0  0  0  0  0  0  0  0  0  0  0
  -12.5900   -4.4568  -35.4438 C   0  0  0  0  0  0  0  0  0  0  0  0
  -12.5360   -3.4707  -36.4315 N   0  0  0  0  0  0  0  0  0  0  0  0
  -13.0915   -4.2256  -34.1895 C   0  0  0  0  0  0  0  0  0  0  0  0
  -13.5912   -2.9999  -33.7877 C   0  0  0  0  0  0  0  0  0  0  0  0
  -13.6097   -1.8724  -34.7294 C   0  0  0  0  0  0  0  0  0  0  0  0
  -17.7961    0.3677  -32.3567 C   0  0  0  0  0  0  0  0  0  0  0  0
  -18.3416    1.5951  -32.0462 C   0  0  0  0  0  0  0  0  0  0  0  0
  -19.6654    1.8740  -32.2880 O   0  0  0  0  0  0  0  0  0  0  0  0
  -20.5785    0.9373  -32.8264 C   0  0  0  0  0  0  0  0  0  0  0  0
  -17.5512    2.5726  -31.4803 C   0  0  0  0  0  0  0  0  0  0  0  0
  -18.0733    3.8335  -31.1515 O   0  0  0  0  0  0  0  0  0  0  0  0
  -18.7682    3.9227  -29.9082 C   0  0  0  0  0  0  0  0  0  0  0  0
  1  2  1  0
  2  3  1  0
  3  4  2  0
  4  5  1  0
  5  6  1  0
  6  7  1  0
  7  8  1  0
  8  9  2  0
  9 10  1  0
 10 11  2  0
 11 12  1  0
 12 13  2  0
 13 14  1  0
 13 15  1  0
 15 16  2  0
 16 17  1  0
 16 18  1  0
 18 19  2  0
 19 20  1  0
  5 21  2  0
 21 22  1  0
 22 23  1  0
 23 24  1  0
 22 25  2  0
 25 26  1  0
 26 27  1  0
 25  3  1  0
 19  8  1  0
 18 11  1  0
M  END
$$$$
