
     RDKit          3D

 16 15  0  0  0  0  0  0  0  0999 V2000
  -34.5674   10.1440  -19.7500 C   0  0  0  0  0  0  0  0  0  0  0  0
  -33.3177    9.3305  -19.7996 C   0  0  0  0  0  0  0  0  0  0  0  0
  -33.2808    8.6099  -21.1422 C   0  0  0  0  0  0  0  0  0  0  0  0
  -32.1148   10.0555  -19.6493 N   0  0  0  0  0  0  0  0  0  0  0  0
  -31.9399   10.7801  -18.4469 C   0  0  0  0  0  0  0  0  0  0  0  0
  -30.6051   11.4869  -18.4707 C   0  0  0  0  0  0  0  0  0  0  0  0
  -29.5917   10.5207  -18.6008 O   0  0  0  0  0  0  0  0  0  0  0  0
  -30.4899   12.4427  -19.5965 C   0  0  0  0  0  0  0  0  0  0  0  0
  -29.2493   12.9229  -19.9455 C   0  0  0  0  0  0  0  0  0  0  0  0
  -29.0765   13.8177  -20.9866 C   0  0  0  0  0  0  0  0  0  0  0  0
  -30.1707   14.2358  -21.6875 C   0  0  0  0  0  0  0  0  0  0  0  0
  -29.9950   15.1297  -22.7270 O   0  0  0  0  0  0  0  0  0  0  0  0
  -31.4316   13.7568  -21.3435 C   0  0  0  0  0  0  0  0  0  0  0  0
  -32.5390   14.1694  -22.0404 O   0  0  0  0  0  0  0  0  0  0  0  0
  -31.5891   12.8541  -20.2903 C   0  0  0  0  0  0  0  0  0  0  0  0
  -32.0951   11.0215  -19.9849 Cl  0  0  0  0  0  0  0  0  0  0  0  0
  1  2  1  0
  2  3  1  0
  2  4  1  0
  4  5  1  0
  5  6  1  0
  6  7  1  0
  6  8  1  0
  8  9  2  0
  9 10  1  0
 10 11  2  0
 11 12  1  0
 11 13  1  0
 13 14  1  0
 13 15  2  0
 15  8  1  0
M  END
$$$$
