
     RDKit          3D

 23 26  0  0  0  0  0  0  0  0999 V2000
  -34.6196   10.9186  -20.0741 C   0  0  0  0  0  0  0  0  0  0  0  0
  -33.1966   10.5004  -19.9704 C   0  0  0  0  0  0  0  0  0  0  0  0
  -32.9401    9.3380  -20.1894 O   0  0  0  0  0  0  0  0  0  0  0  0
  -32.1690   11.4853  -19.6141 C   0  0  1  0  0  0  0  0  0  0  0  0
  -31.3137   10.8882  -18.4904 C   0  0  0  0  0  0  0  0  0  0  0  0
  -29.8765   11.1759  -18.8718 C   0  0  0  0  0  0  0  0  0  0  0  0
  -30.0322   12.2935  -19.8354 C   0  0  1  0  0  0  0  0  0  0  0  0
  -28.8861   12.6629  -20.6672 C   0  0  2  0  0  0  0  0  0  0  0  0
  -27.6381   12.9916  -19.8616 C   0  0  0  0  0  0  0  0  0  0  0  0
  -26.5182   13.0529  -20.8952 C   0  0  0  0  0  0  0  0  0  0  0  0
  -26.8504   14.2248  -21.7442 C   0  0  0  0  0  0  0  0  0  0  0  0
  -25.8447   14.9922  -22.1250 C   0  0  0  0  0  0  0  0  0  0  0  0
  -26.0543   16.1735  -22.9623 C   0  0  0  0  0  0  0  0  0  0  0  0
  -25.1893   16.6441  -23.7286 O   0  0  0  0  0  0  0  0  0  0  0  0
  -27.3720   16.8415  -22.8889 C   0  0  0  0  0  0  0  0  0  0  0  0
  -28.3754   16.0686  -22.0908 C   0  0  0  0  0  0  0  0  0  0  0  0
  -28.2031   14.5766  -22.1799 C   0  0  1  0  0  0  0  0  0  0  0  0
  -28.3039   14.1820  -23.6607 C   0  0  0  0  0  0  0  0  0  0  0  0
  -29.3042   13.9286  -21.4288 C   0  0  1  0  0  0  0  0  0  0  0  0
  -30.4618   13.5186  -22.3512 C   0  0  0  0  0  0  0  0  0  0  0  0
  -31.5810   12.9132  -21.5866 C   0  0  0  0  0  0  0  0  0  0  0  0
  -31.1653   11.7794  -20.7173 C   0  0  2  0  0  0  0  0  0  0  0  0
  -30.8442   10.5510  -21.4818 C   0  0  0  0  0  0  0  0  0  0  0  0
  1  2  1  0
  2  3  2  0
  4  2  1  6
  4  5  1  0
  5  6  1  0
  7  6  1  1
  7  8  1  0
  8  9  1  1
  9 10  1  0
 10 11  1  0
 11 12  2  0
 12 13  1  0
 13 14  2  0
 13 15  1  0
 15 16  1  0
 16 17  1  0
 17 18  1  6
 17 19  1  0
 19 20  1  6
 20 21  1  0
 21 22  1  0
 22 23  1  6
 22  4  1  0
 22  7  1  0
 19  8  1  0
 17 11  1  0
M  END
$$$$
