
     RDKit          3D

 23 26  0  0  0  0  0  0  0  0999 V2000
  -16.1961   15.1190  -30.6807 O   0  0  0  0  0  0  0  0  0  0  0  0
  -17.0124   14.7538  -29.8258 C   0  0  0  0  0  0  0  0  0  0  0  0
  -16.6550   13.6229  -29.0154 N   0  0  0  0  0  0  0  0  0  0  0  0
  -15.3155   13.3413  -28.6461 C   0  0  0  0  0  0  0  0  0  0  0  0
  -14.2545   13.6333  -29.4554 C   0  0  0  0  0  0  0  0  0  0  0  0
  -12.9543   13.3529  -29.0818 C   0  0  0  0  0  0  0  0  0  0  0  0
  -12.6984   12.7637  -27.8661 C   0  0  0  0  0  0  0  0  0  0  0  0
  -11.3998   12.4888  -27.5040 F   0  0  0  0  0  0  0  0  0  0  0  0
  -13.7508   12.4578  -27.0286 C   0  0  0  0  0  0  0  0  0  0  0  0
  -13.4767   11.8780  -25.8362 F   0  0  0  0  0  0  0  0  0  0  0  0
  -15.0528   12.7514  -27.4301 C   0  0  0  0  0  0  0  0  0  0  0  0
  -16.0428   12.4281  -26.5661 F   0  0  0  0  0  0  0  0  0  0  0  0
  -18.2595   15.4263  -29.6490 N   0  0  0  0  0  0  0  0  0  0  0  0
  -19.1128   15.7011  -30.7807 C   0  0  0  0  0  0  0  0  0  0  0  0
  -18.4355   16.4726  -31.8705 C   0  0  0  0  0  0  0  0  0  0  0  0
  -19.3780   16.6092  -33.0324 C   0  0  0  0  0  0  0  0  0  0  0  0
  -20.6294   17.3590  -32.6851 C   0  0  0  0  0  0  0  0  0  0  0  0
  -21.2741   16.6439  -31.5093 C   0  0  0  0  0  0  0  0  0  0  0  0
  -21.7660   15.3136  -32.0297 C   0  0  0  0  0  0  0  0  0  0  0  0
  -20.5523   14.5308  -32.4741 C   0  0  0  0  0  0  0  0  0  0  0  0
  -19.7672   15.2517  -33.5457 C   0  0  0  0  0  0  0  0  0  0  0  0
  -19.6529   14.3670  -31.2837 C   0  0  0  0  0  0  0  0  0  0  0  0
  -20.3352   16.5074  -30.3536 C   0  0  0  0  0  0  0  0  0  0  0  0
  1  2  2  0
  2  3  1  0
  3  4  1  0
  4  5  2  0
  5  6  1  0
  6  7  2  0
  7  8  1  0
  7  9  1  0
  9 10  1  0
  9 11  2  0
 11 12  1  0
  2 13  1  0
 13 14  1  0
 14 15  1  0
 15 16  1  0
 16 17  1  0
 17 18  1  0
 18 19  1  0
 19 20  1  0
 20 21  1  0
 20 22  1  0
 18 23  1  0
 11  4  1  0
 22 14  1  0
 23 14  1  0
 21 16  1  0
M  END
$$$$
