
     RDKit          3D

 24 26  0  0  0  0  0  0  0  0999 V2000
  -22.2608   23.6874  -31.1017 C   0  0  0  0  0  0  0  0  0  0  0  0
  -22.9005   24.7591  -31.7226 O   0  0  0  0  0  0  0  0  0  0  0  0
  -23.2307   24.7710  -33.0799 C   0  0  0  0  0  0  0  0  0  0  0  0
  -23.8562   23.7013  -33.6790 C   0  0  0  0  0  0  0  0  0  0  0  0
  -24.1789   23.7165  -35.0117 C   0  0  0  0  0  0  0  0  0  0  0  0
  -23.8995   24.8105  -35.8563 C   0  0  0  0  0  0  0  0  0  0  0  0
  -24.2762   24.7421  -37.2565 C   0  0  0  0  0  0  0  0  0  0  0  0
  -23.4108   25.0128  -38.1636 O   0  0  0  0  0  0  0  0  0  0  0  0
  -25.5667   24.3878  -37.6976 N   0  0  0  0  0  0  0  0  0  0  0  0
  -26.6861   24.3055  -37.0037 N   0  0  0  0  0  0  0  0  0  0  0  0
  -27.7287   23.9389  -37.7440 C   0  0  0  0  0  0  0  0  0  0  0  0
  -29.1105   23.7415  -37.3457 C   0  0  0  0  0  0  0  0  0  0  0  0
  -29.5147   23.6618  -36.0363 C   0  0  0  0  0  0  0  0  0  0  0  0
  -30.8302   23.4743  -35.6780 C   0  0  0  0  0  0  0  0  0  0  0  0
  -31.7861   23.3611  -36.6720 C   0  0  0  0  0  0  0  0  0  0  0  0
  -31.3844   23.4407  -37.9905 C   0  0  0  0  0  0  0  0  0  0  0  0
  -30.0668   23.6282  -38.3287 C   0  0  0  0  0  0  0  0  0  0  0  0
  -27.2227   23.7835  -38.9788 N   0  0  0  0  0  0  0  0  0  0  0  0
  -25.9101   24.0538  -38.9614 C   0  0  0  0  0  0  0  0  0  0  0  0
  -24.9865   24.0155  -40.0413 N   0  0  0  0  0  0  0  0  0  0  0  0
  -23.2773   25.8665  -35.2455 C   0  0  0  0  0  0  0  0  0  0  0  0
  -22.9468   25.8511  -33.8809 C   0  0  0  0  0  0  0  0  0  0  0  0
  -22.3198   26.9302  -33.2921 O   0  0  0  0  0  0  0  0  0  0  0  0
  -22.9125   28.1974  -33.3876 C   0  0  0  0  0  0  0  0  0  0  0  0
  1  2  1  0
  2  3  1  0
  3  4  2  0
  4  5  1  0
  5  6  2  0
  6  7  1  0
  7  8  2  0
  7  9  1  0
  9 10  1  0
 10 11  2  0
 11 12  1  0
 12 13  2  0
 13 14  1  0
 14 15  2  0
 15 16  1  0
 16 17  2  0
 11 18  1  0
 18 19  2  0
 19 20  1  0
  6 21  1  0
 21 22  2  0
 22 23  1  0
 23 24  1  0
 22  3  1  0
 19  9  1  0
 17 12  1  0
M  END
$$$$
