
     RDKit          3D

 14 14  0  0  0  0  0  0  0  0999 V2000
  -17.7511   29.0984  -22.0631 C   0  0  0  0  0  0  0  0  0  0  0  0
  -18.8971   30.0427  -22.3624 C   0  0  0  0  0  0  0  0  0  0  0  0
  -18.4159   31.4129  -22.3995 N   0  0  0  0  0  0  0  0  0  0  0  0
  -19.3000   32.4401  -22.0459 C   0  0  0  0  0  0  0  0  0  0  0  0
  -20.5087   32.1415  -21.7516 O   0  0  0  0  0  0  0  0  0  0  0  0
  -18.9585   33.8590  -21.9810 C   0  0  0  0  0  0  0  0  0  0  0  0
  -19.8626   34.8113  -21.9270 C   0  0  0  0  0  0  0  0  0  0  0  0
  -19.5639   36.2447  -21.8582 C   0  0  0  0  0  0  0  0  0  0  0  0
  -20.5679   37.1217  -21.4301 C   0  0  0  0  0  0  0  0  0  0  0  0
  -20.3709   38.4798  -21.3369 C   0  0  0  0  0  0  0  0  0  0  0  0
  -19.1251   38.9788  -21.6842 C   0  0  0  0  0  0  0  0  0  0  0  0
  -18.1099   38.1639  -22.1087 C   0  0  0  0  0  0  0  0  0  0  0  0
  -16.3791   38.7950  -22.5984 Br  0  0  0  0  0  0  0  0  0  0  0  0
  -18.3587   36.8063  -22.1850 C   0  0  0  0  0  0  0  0  0  0  0  0
  1  2  1  0
  2  3  1  0
  3  4  1  0
  4  5  2  0
  4  6  1  0
  6  7  2  0
  7  8  1  0
  8  9  2  0
  9 10  1  0
 10 11  2  0
 11 12  1  0
 12 13  1  0
 12 14  2  0
 14  8  1  0
M  END
$$$$
