
     RDKit          3D

 12 13  0  0  0  0  0  0  0  0999 V2000
  -17.1996   44.3435  -21.7780 C   0  0  0  0  0  0  0  0  0  0  0  0
  -17.1043   43.5786  -20.5907 O   0  0  0  0  0  0  0  0  0  0  0  0
  -17.6604   42.3235  -20.4829 C   0  0  0  0  0  0  0  0  0  0  0  0
  -18.1111   41.8192  -19.2890 C   0  0  0  0  0  0  0  0  0  0  0  0
  -18.6706   40.5556  -19.1823 C   0  0  0  0  0  0  0  0  0  0  0  0
  -18.7788   39.7738  -20.3212 C   0  0  0  0  0  0  0  0  0  0  0  0
  -19.2623   38.5386  -20.5382 N   0  0  0  0  0  0  0  0  0  0  0  0
  -19.1150   38.2769  -21.8489 C   0  0  0  0  0  0  0  0  0  0  0  0
  -19.6141   36.7387  -22.6406 S   0  0  0  0  0  0  0  0  0  0  0  0
  -18.5460   39.3356  -22.4458 N   0  0  0  0  0  0  0  0  0  0  0  0
  -18.3288   40.2763  -21.5162 C   0  0  0  0  0  0  0  0  0  0  0  0
  -17.7673   41.5527  -21.6051 C   0  0  0  0  0  0  0  0  0  0  0  0
  1  2  1  0
  2  3  1  0
  3  4  2  0
  4  5  1  0
  5  6  2  0
  6  7  1  0
  7  8  1  0
  8  9  1  0
  8 10  2  0
 10 11  1  0
 11 12  2  0
 12  3  1  0
 11  6  1  0
M  END
$$$$
