
     RDKit          3D

 22 24  0  0  0  0  0  0  0  0999 V2000
  -22.1987   20.5311  -38.6884 C   0  0  0  0  0  0  0  0  0  0  0  0
  -21.5154   21.7553  -38.3316 N   0  0  0  0  0  0  0  0  0  0  0  0
  -21.3518   21.8965  -36.9027 C   0  0  0  0  0  0  0  0  0  0  0  0
  -22.2649   23.1382  -39.0362 S   0  0  0  0  0  6  0  0  0  0  0  0
  -23.1363   22.6653  -40.1624 O   0  0  0  0  0  0  0  0  0  0  0  0
  -21.2321   24.0516  -39.6374 O   0  0  0  0  0  0  0  0  0  0  0  0
  -23.1942   23.9475  -37.7967 C   0  0  0  0  0  0  0  0  0  0  0  0
  -22.5431   24.7361  -36.8726 C   0  0  0  0  0  0  0  0  0  0  0  0
  -23.2044   25.4076  -35.8641 C   0  0  0  0  0  0  0  0  0  0  0  0
  -24.5757   25.2659  -35.8014 C   0  0  0  0  0  0  0  0  0  0  0  0
  -25.2750   24.4901  -36.6997 C   0  0  0  0  0  0  0  0  0  0  0  0
  -26.6923   24.3887  -36.5753 N   0  0  0  0  0  0  0  0  0  0  0  0
  -27.5904   24.2434  -35.0895 S   0  0  0  0  0  0  0  0  0  0  0  0
  -29.2158   24.1782  -35.8343 C   0  0  0  0  0  0  0  0  0  0  0  0
  -30.4988   24.0627  -35.3105 C   0  0  0  0  0  0  0  0  0  0  0  0
  -31.5789   24.0410  -36.1799 C   0  0  0  0  0  0  0  0  0  0  0  0
  -31.3112   24.1361  -37.5230 C   0  0  0  0  0  0  0  0  0  0  0  0
  -30.0462   24.2479  -38.0036 C   0  0  0  0  0  0  0  0  0  0  0  0
  -28.9143   24.2747  -37.1615 C   0  0  0  0  0  0  0  0  0  0  0  0
  -27.6238   24.3813  -37.5217 C   0  0  0  0  0  0  0  0  0  0  0  0
  -27.2104   24.4800  -38.7584 O   0  0  0  0  0  0  0  0  0  0  0  0
  -24.5665   23.8423  -37.6856 C   0  0  0  0  0  0  0  0  0  0  0  0
  1  2  1  0
  2  3  1  0
  2  4  1  0
  4  5  2  0
  4  6  2  0
  4  7  1  0
  7  8  2  0
  8  9  1  0
  9 10  2  0
 10 11  1  0
 11 12  1  0
 12 13  1  0
 13 14  1  0
 14 15  2  0
 15 16  1  0
 16 17  2  0
 17 18  1  0
 18 19  2  0
 19 20  1  0
 20 21  2  0
 11 22  2  0
 22  7  1  0
 20 12  1  0
 19 14  1  0
M  END
$$$$
