
     RDKit          3D

  9  9  0  0  0  0  0  0  0  0999 V2000
  -25.5440   17.6727  -20.6314 O   0  0  0  0  0  0  0  0  0  0  0  0
  -25.9700   16.8126  -21.4516 C   0  0  0  0  0  0  0  0  0  0  0  0
  -26.4656   17.1484  -22.6591 N   0  0  0  0  0  0  0  0  0  0  0  0
  -26.9237   16.2523  -23.5466 C   0  0  0  0  0  0  0  0  0  0  0  0
  -26.8960   14.9058  -23.2275 C   0  0  0  0  0  0  0  0  0  0  0  0
  -27.3506   13.9539  -24.0964 F   0  0  0  0  0  0  0  0  0  0  0  0
  -26.3875   14.5688  -21.9903 C   0  0  0  0  0  0  0  0  0  0  0  0
  -26.3324   13.3464  -21.6315 O   0  0  0  0  0  0  0  0  0  0  0  0
  -25.9410   15.5018  -21.1366 N   0  0  0  0  0  0  0  0  0  0  0  0
  1  2  2  0
  2  3  1  0
  3  4  1  0
  4  5  2  0
  5  6  1  0
  5  7  1  0
  7  8  2  0
  7  9  1  0
  9  2  1  0
M  END
$$$$
