
     RDKit          3D

 20 23  0  0  0  0  0  0  0  0999 V2000
  -20.0914   41.2739  -19.3636 C   0  0  0  0  0  0  0  0  0  0  0  0
  -18.9782   40.7889  -20.2612 C   0  0  2  0  0  0  0  0  0  0  0  0
  -17.7607   40.4867  -19.4685 C   0  0  0  0  0  0  0  0  0  0  0  0
  -16.7701   41.5505  -19.2762 C   0  0  0  0  0  0  0  0  0  0  0  0
  -16.8530   42.7650  -20.1527 C   0  0  2  0  0  0  0  0  0  0  0  0
  -16.1949   43.9444  -19.5734 C   0  0  0  0  0  0  0  0  0  0  0  0
  -15.0787   43.7415  -18.7901 C   0  0  0  0  0  0  0  0  0  0  0  0
  -14.4153   44.8174  -18.2154 C   0  0  0  0  0  0  0  0  0  0  0  0
  -14.9255   46.0742  -18.4671 C   0  0  0  0  0  0  0  0  0  0  0  0
  -14.2472   47.1538  -17.8812 O   0  0  0  0  0  0  0  0  0  0  0  0
  -16.0482   46.2748  -19.2553 C   0  0  0  0  0  0  0  0  0  0  0  0
  -16.6953   45.1952  -19.8187 C   0  0  0  0  0  0  0  0  0  0  0  0
  -17.8930   45.4553  -20.6563 C   0  0  0  0  0  0  0  0  0  0  0  0
  -18.1900   44.2477  -21.5550 C   0  0  0  0  0  0  0  0  0  0  0  0
  -18.2569   43.0420  -20.6561 C   0  0  1  0  0  0  0  0  0  0  0  0
  -18.6351   41.7864  -21.3486 C   0  0  2  0  0  0  0  0  0  0  0  0
  -19.8847   41.7959  -22.1436 C   0  0  0  0  0  0  0  0  0  0  0  0
  -20.1447   40.2936  -22.2674 C   0  0  0  0  0  0  0  0  0  0  0  0
  -19.4960   39.6817  -21.0738 C   0  0  0  0  0  0  0  0  0  0  0  0
  -19.4313   38.4987  -20.8561 O   0  0  0  0  0  0  0  0  0  0  0  0
  2  1  1  1
  2  3  1  0
  3  4  1  0
  5  4  1  1
  5  6  1  0
  6  7  2  0
  7  8  1  0
  8  9  2  0
  9 10  1  0
  9 11  1  0
 11 12  2  0
 12 13  1  0
 13 14  1  0
 15 14  1  6
 15 16  1  0
 16 17  1  6
 17 18  1  0
 18 19  1  0
 19 20  2  0
 16  2  1  0
 19  2  1  0
 15  5  1  0
 12  6  1  0
M  END
$$$$
