
     RDKit          3D

 21 23  0  0  0  0  0  0  0  0999 V2000
  -19.3527   31.9143  -23.3431 C   0  0  0  0  0  0  0  0  0  0  0  0
  -20.0150   32.7529  -22.4047 O   0  0  0  0  0  0  0  0  0  0  0  0
  -19.7132   34.1004  -22.3265 C   0  0  0  0  0  0  0  0  0  0  0  0
  -19.0166   34.5742  -21.2365 C   0  0  0  0  0  0  0  0  0  0  0  0
  -18.7045   35.9137  -21.1370 C   0  0  0  0  0  0  0  0  0  0  0  0
  -18.0081   36.4682  -20.0753 O   0  0  0  0  0  0  0  0  0  0  0  0
  -19.1132   36.7433  -22.1588 C   0  0  0  0  0  0  0  0  0  0  0  0
  -18.8165   38.0846  -22.0877 C   0  0  0  0  0  0  0  0  0  0  0  0
  -18.1805   38.5598  -21.1072 O   0  0  0  0  0  0  0  0  0  0  0  0
  -19.2305   38.8936  -23.1117 C   0  0  0  0  0  0  0  0  0  0  0  0
  -18.9659   40.3314  -23.1318 C   0  0  0  0  0  0  0  0  0  0  0  0
  -17.6845   40.7924  -23.3666 C   0  0  0  0  0  0  0  0  0  0  0  0
  -17.3619   42.1356  -23.3998 C   0  0  0  0  0  0  0  0  0  0  0  0
  -18.3706   43.0536  -23.1878 C   0  0  0  0  0  0  0  0  0  0  0  0
  -18.0311   44.3926  -23.2243 O   0  0  0  0  0  0  0  0  0  0  0  0
  -19.6654   42.6166  -22.9499 C   0  0  0  0  0  0  0  0  0  0  0  0
  -19.9568   41.2672  -22.9228 C   0  0  0  0  0  0  0  0  0  0  0  0
  -19.9243   38.3307  -24.1660 C   0  0  0  0  0  0  0  0  0  0  0  0
  -20.2073   37.0625  -24.2378 O   0  0  0  0  0  0  0  0  0  0  0  0
  -19.8140   36.2703  -23.2566 C   0  0  0  0  0  0  0  0  0  0  0  0
  -20.1205   34.9324  -23.3465 C   0  0  0  0  0  0  0  0  0  0  0  0
  1  2  1  0
  2  3  1  0
  3  4  2  0
  4  5  1  0
  5  6  1  0
  5  7  2  0
  7  8  1  0
  8  9  2  0
  8 10  1  0
 10 11  1  0
 11 12  2  0
 12 13  1  0
 13 14  2  0
 14 15  1  0
 14 16  1  0
 16 17  2  0
 10 18  2  0
 18 19  1  0
 19 20  1  0
 20 21  2  0
 21  3  1  0
 20  7  1  0
 17 11  1  0
M  END
$$$$
