
     RDKit          3D

 20 22  0  0  0  0  0  0  0  0999 V2000
  -10.1970    2.5398  -34.0650 F   0  0  0  0  0  0  0  0  0  0  0  0
  -11.2006    2.0029  -33.3175 C   0  0  0  0  0  0  0  0  0  0  0  0
  -11.7253    2.6525  -32.2148 C   0  0  0  0  0  0  0  0  0  0  0  0
  -12.7418    2.0730  -31.4851 C   0  0  0  0  0  0  0  0  0  0  0  0
  -13.2498    0.8407  -31.8417 C   0  0  0  0  0  0  0  0  0  0  0  0
  -14.3424    0.1967  -31.0734 C   0  0  0  0  0  0  0  0  0  0  0  0
  -15.6342    0.8052  -31.3502 N   0  0  0  0  0  0  0  0  0  0  0  0
  -16.6885   -0.0171  -31.7770 C   0  0  0  0  0  0  0  0  0  0  0  0
  -16.5176   -1.3671  -31.9354 N   0  0  0  0  0  0  0  0  0  0  0  0
  -17.4966   -2.1881  -32.3405 C   0  0  0  0  0  0  0  0  0  0  0  0
  -18.6923   -1.6357  -32.5968 N   0  0  0  0  0  0  0  0  0  0  0  0
  -18.9626   -0.3244  -32.4727 C   0  0  0  0  0  0  0  0  0  0  0  0
  -20.2075    0.2048  -32.7465 C   0  0  0  0  0  0  0  0  0  0  0  0
  -20.4995    1.5447  -32.6243 C   0  0  0  0  0  0  0  0  0  0  0  0
  -19.4886    2.3736  -32.2088 C   0  0  0  0  0  0  0  0  0  0  0  0
  -19.7366    3.6953  -32.0768 F   0  0  0  0  0  0  0  0  0  0  0  0
  -18.2250    1.8413  -31.9301 C   0  0  0  0  0  0  0  0  0  0  0  0
  -17.9352    0.5152  -32.0509 C   0  0  0  0  0  0  0  0  0  0  0  0
  -12.7131    0.2021  -32.9498 C   0  0  0  0  0  0  0  0  0  0  0  0
  -11.6882    0.7726  -33.6962 C   0  0  0  0  0  0  0  0  0  0  0  0
  1  2  1  0
  2  3  2  0
  3  4  1  0
  4  5  2  0
  5  6  1  0
  6  7  1  0
  7  8  1  0
  8  9  2  0
  9 10  1  0
 10 11  2  0
 11 12  1  0
 12 13  2  0
 13 14  1  0
 14 15  2  0
 15 16  1  0
 15 17  1  0
 17 18  2  0
  5 19  1  0
 19 20  2  0
 20  2  1  0
 18  8  1  0
 18 12  1  0
M  END
$$$$
