
     RDKit          3D

 26 29  0  0  0  0  0  0  0  0999 V2000
  -21.5442   36.9438  -20.3701 C   0  0  0  0  0  0  0  0  0  0  0  0
  -20.2538   37.4967  -20.4773 O   0  0  0  0  0  0  0  0  0  0  0  0
  -20.0641   38.8402  -20.8072 C   0  0  0  0  0  0  0  0  0  0  0  0
  -20.7830   39.4188  -21.8316 C   0  0  0  0  0  0  0  0  0  0  0  0
  -20.6516   40.7171  -22.2045 C   0  0  0  0  0  0  0  0  0  0  0  0
  -21.3250   41.2234  -23.2584 N   0  0  0  0  0  0  0  0  0  0  0  0
  -21.1093   42.4922  -23.6252 C   0  0  0  0  0  0  0  0  0  0  0  0
  -20.2739   43.2684  -23.0021 N   0  0  0  0  0  0  0  0  0  0  0  0
  -19.5356   42.8329  -21.8969 C   0  0  0  0  0  0  0  0  0  0  0  0
  -18.6637   43.7799  -21.3172 N   0  0  0  0  0  0  0  0  0  0  0  0
  -17.3702   43.2978  -21.0955 N   0  0  0  0  0  0  0  0  0  0  0  0
  -16.6499   44.1478  -20.3904 C   0  0  0  0  0  0  0  0  0  0  0  0
  -15.2557   43.9773  -19.9668 C   0  0  0  0  0  0  0  0  0  0  0  0
  -14.5032   42.8744  -20.3103 C   0  0  0  0  0  0  0  0  0  0  0  0
  -13.1977   42.7429  -19.8978 C   0  0  0  0  0  0  0  0  0  0  0  0
  -12.6000   43.7219  -19.1206 C   0  0  0  0  0  0  0  0  0  0  0  0
  -13.3839   44.8131  -18.7953 C   0  0  0  0  0  0  0  0  0  0  0  0
  -14.6570   44.9229  -19.2082 N   0  0  0  0  0  0  0  0  0  0  0  0
  -17.3918   45.1953  -20.1199 N   0  0  0  0  0  0  0  0  0  0  0  0
  -18.6111   44.9267  -20.7101 C   0  0  0  0  0  0  0  0  0  0  0  0
  -19.6089   45.9361  -20.7659 N   0  0  0  0  0  0  0  0  0  0  0  0
  -19.7425   41.5485  -21.5283 C   0  0  0  0  0  0  0  0  0  0  0  0
  -19.0167   40.9816  -20.5095 C   0  0  0  0  0  0  0  0  0  0  0  0
  -19.1659   39.6390  -20.1377 C   0  0  0  0  0  0  0  0  0  0  0  0
  -18.4095   39.1227  -19.0992 O   0  0  0  0  0  0  0  0  0  0  0  0
  -17.6278   39.9405  -18.2524 C   0  0  0  0  0  0  0  0  0  0  0  0
  1  2  1  0
  2  3  1  0
  3  4  2  0
  4  5  1  0
  5  6  2  0
  6  7  1  0
  7  8  2  0
  8  9  1  0
  9 10  1  0
 10 11  1  0
 11 12  2  0
 12 13  1  0
 13 14  2  0
 14 15  1  0
 15 16  2  0
 16 17  1  0
 17 18  2  0
 12 19  1  0
 19 20  2  0
 20 21  1  0
  9 22  2  0
 22 23  1  0
 23 24  2  0
 24 25  1  0
 25 26  1  0
 24  3  1  0
 22  5  1  0
 20 10  1  0
 18 13  1  0
M  END
$$$$
