
     RDKit          3D

 14 14  0  0  0  0  0  0  0  0999 V2000
  -19.4703   43.1437  -21.9104 C   0  0  0  0  0  0  0  0  0  0  0  0
  -19.7835   43.0048  -23.3825 C   0  0  0  0  0  0  0  0  0  0  0  0
  -20.1063   44.0503  -23.9837 O   0  0  0  0  0  0  0  0  0  0  0  0
  -19.6825   41.7085  -23.9258 N   0  0  0  0  0  0  0  0  0  0  0  0
  -19.5851   40.6440  -23.2374 C   0  0  0  0  0  0  0  0  0  0  0  0
  -17.9900   39.7639  -22.8887 S   0  0  0  0  0  0  0  0  0  0  0  0
  -18.9191   38.4318  -21.8730 C   0  0  0  0  0  0  0  0  0  0  0  0
  -17.9297   37.1458  -21.1678 S   0  0  0  0  0  6  0  0  0  0  0  0
  -16.7884   36.6164  -22.3325 N   0  0  0  0  0  0  0  0  0  0  0  0
  -17.2509   37.7299  -19.9901 O   0  0  0  0  0  0  0  0  0  0  0  0
  -18.7908   36.0120  -20.6930 O   0  0  0  0  0  0  0  0  0  0  0  0
  -19.9854   38.8484  -21.9927 N   0  0  0  0  0  0  0  0  0  0  0  0
  -20.4801   39.8681  -22.5941 N   0  0  0  0  0  0  0  0  0  0  0  0
  -21.9112   40.2353  -22.6241 C   0  0  0  0  0  0  0  0  0  0  0  0
  1  2  1  0
  2  3  2  0
  2  4  1  0
  4  5  2  0
  5  6  1  0
  6  7  1  0
  7  8  1  0
  8  9  1  0
  8 10  2  0
  8 11  2  0
  7 12  2  0
 12 13  1  0
 13 14  1  0
 13  5  1  0
M  END
$$$$
