
     RDKit          3D

 32 29  0  0  0  0  0  0  0  0999 V2000
  -32.7079   13.8047  -21.6789 C   0  0  0  0  0  0  0  0  0  0  0  0
  -31.5023   13.1680  -21.0258 C   0  0  2  0  0  0  0  0  0  0  0  0
  -30.5631   12.6403  -21.9558 N   0  0  0  0  0  0  0  0  0  0  0  0
  -30.0197   13.6369  -22.8554 C   0  0  0  0  0  0  0  0  0  0  0  0
  -29.3135   14.7121  -22.1546 C   0  0  0  0  0  0  0  0  0  0  0  0
  -29.5045   16.0534  -22.4881 C   0  0  0  0  0  0  0  0  0  0  0  0
  -28.8529   17.0577  -21.8427 C   0  0  0  0  0  0  0  0  0  0  0  0
  -27.9779   16.8034  -20.8344 C   0  0  0  0  0  0  0  0  0  0  0  0
  -27.7575   15.4942  -20.4705 C   0  0  0  0  0  0  0  0  0  0  0  0
  -26.8809   15.2406  -19.4605 N   0  0  0  0  0  0  0  0  0  0  0  0
  -26.6624   13.9658  -19.1018 C   0  0  0  0  0  0  0  0  0  0  0  0
  -25.7656   13.7390  -18.0714 O   0  0  0  0  0  1  0  0  0  0  0  0
  -27.3253   12.9467  -19.7587 C   0  0  0  0  0  0  0  0  0  0  0  0
  -27.0326   11.6478  -19.3143 O   0  0  0  0  0  1  0  0  0  0  0  0
  -28.1940   13.1820  -20.7582 N   0  0  0  0  0  0  0  0  0  0  0  0
  -28.4164   14.4725  -21.1227 C   0  0  0  0  0  0  0  0  0  0  0  0
  -29.0441   12.8741  -24.1721 P   0  0  0  0  0  5  0  0  0  0  0  0
  -28.0404   11.8914  -23.6344 O   0  0  0  0  0  0  0  0  0  0  0  0
  -30.0704   12.0516  -25.2489 O   0  0  0  0  0  1  0  0  0  0  0  0
  -28.2820   14.1038  -25.0563 O   0  0  0  0  0  1  0  0  0  0  0  0
  -32.0107   12.0722  -20.1610 C   0  0  0  0  0  0  0  0  0  0  0  0
  -32.4166   10.8654  -20.6814 C   0  0  0  0  0  0  0  0  0  0  0  0
  -32.8822    9.8681  -19.8479 C   0  0  0  0  0  0  0  0  0  0  0  0
  -32.9611   10.0313  -18.4787 C   0  0  0  0  0  0  0  0  0  0  0  0
  -33.6097    8.6370  -17.3360 Br  0  0  0  0  0  0  0  0  0  0  0  0
  -32.5472   11.2508  -17.9898 C   0  0  0  0  0  0  0  0  0  0  0  0
  -32.0790   12.2611  -18.7995 C   0  0  0  0  0  0  0  0  0  0  0  0
  -30.1066   13.0651  -20.6999 O   0  0  0  0  0  0  0  0  0  0  0  0
  -30.2756   13.3074  -20.9711 Na  0  0  0  0  0 15  0  0  0  0  0  0
  -30.2756   13.3074  -20.9711 Na  0  0  0  0  0 15  0  0  0  0  0  0
  -30.2756   13.3074  -20.9711 Na  0  0  0  0  0 15  0  0  0  0  0  0
  -30.2756   13.3074  -20.9711 Na  0  0  0  0  0 15  0  0  0  0  0  0
  2  1  1  6
  2  3  1  0
  3  4  1  0
  4  5  1  0
  5  6  2  0
  6  7  1  0
  7  8  2  0
  8  9  1  0
  9 10  2  0
 10 11  1  0
 11 12  1  0
 11 13  2  0
 13 14  1  0
 13 15  1  0
 15 16  2  0
  4 17  1  0
 17 18  2  0
 17 19  1  0
 17 20  1  0
  2 21  1  0
 21 22  2  0
 22 23  1  0
 23 24  2  0
 24 25  1  0
 24 26  1  0
 26 27  2  0
 16  5  1  0
 27 21  1  0
 16  9  1  0
M  CHG  8  12  -1  14  -1  19  -1  20  -1  29   1  30   1  31   1  32   1
M  END
$$$$
