
     RDKit          3D

 25 27  0  0  0  0  0  0  0  0999 V2000
  -14.6873   -2.5470  -34.6999 O   0  0  0  0  0  0  0  0  0  0  0  0
  -13.5506   -2.2050  -34.3091 C   0  0  0  0  0  0  0  0  0  0  0  0
  -12.4604   -3.0297  -34.6614 N   0  0  0  0  0  0  0  0  0  0  0  0
  -12.6127   -4.0615  -35.5487 O   0  0  0  0  0  0  0  0  0  0  0  0
  -12.6092   -5.2282  -34.7547 C   0  0  0  0  0  0  0  0  0  0  0  0
  -11.9017   -6.3425  -35.5209 C   0  0  0  0  0  0  0  0  0  0  0  0
  -12.0380   -7.5602  -34.8623 O   0  0  0  0  0  0  0  0  0  0  0  0
  -13.3522   -0.9891  -33.5114 C   0  0  0  0  0  0  0  0  0  0  0  0
  -12.1898   -0.7322  -32.8308 C   0  0  0  0  0  0  0  0  0  0  0  0
  -12.0053    0.4110  -32.0815 C   0  0  0  0  0  0  0  0  0  0  0  0
  -13.0339    1.3318  -32.0158 C   0  0  0  0  0  0  0  0  0  0  0  0
  -13.1392    2.5528  -31.3539 C   0  0  0  0  0  0  0  0  0  0  0  0
  -14.3602    3.0175  -31.6415 N   0  0  0  0  0  0  0  0  0  0  0  0
  -14.9821    2.1432  -32.4341 C   0  0  0  0  0  0  0  0  0  0  0  0
  -14.1631    1.0778  -32.6795 N   0  0  0  0  0  0  0  0  0  0  0  0
  -14.3609   -0.0418  -33.4211 C   0  0  0  0  0  0  0  0  0  0  0  0
  -15.5970   -0.2235  -34.0917 N   0  0  0  0  0  0  0  0  0  0  0  0
  -16.8073    0.2479  -33.5178 C   0  0  0  0  0  0  0  0  0  0  0  0
  -16.9933    0.1522  -32.1472 C   0  0  0  0  0  0  0  0  0  0  0  0
  -18.1618    0.6051  -31.5764 C   0  0  0  0  0  0  0  0  0  0  0  0
  -19.1602    1.1541  -32.3252 C   0  0  0  0  0  0  0  0  0  0  0  0
  -20.9378    1.8448  -31.4714 I   0  0  0  0  0  0  0  0  0  0  0  0
  -18.9889    1.2548  -33.6829 C   0  0  0  0  0  0  0  0  0  0  0  0
  -17.8169    0.8019  -34.2652 C   0  0  0  0  0  0  0  0  0  0  0  0
  -17.6488    0.9022  -35.6103 F   0  0  0  0  0  0  0  0  0  0  0  0
  1  2  2  0
  2  3  1  0
  3  4  1  0
  4  5  1  0
  5  6  1  0
  6  7  1  0
  2  8  1  0
  8  9  1  0
  9 10  2  0
 10 11  1  0
 11 12  2  0
 12 13  1  0
 13 14  2  0
 14 15  1  0
 15 16  1  0
 16 17  1  0
 17 18  1  0
 18 19  2  0
 19 20  1  0
 20 21  2  0
 21 22  1  0
 21 23  1  0
 23 24  2  0
 24 25  1  0
 16  8  2  0
 24 18  1  0
 15 11  1  0
M  END
$$$$
