
     RDKit          3D

 27 29  0  0  0  0  0  0  0  0999 V2000
  -27.0800    8.3149  -17.7278 C   0  0  0  0  0  0  0  0  0  0  0  0
  -26.8246    8.9861  -18.7943 O   0  0  0  0  0  0  0  0  0  0  0  0
  -26.5550    9.6518  -19.8766 C   0  0  0  0  0  0  0  0  0  0  0  0
  -25.9756    9.0120  -20.9953 C   0  0  0  0  0  0  0  0  0  0  0  0
  -25.7008    9.7355  -22.1244 C   0  0  0  0  0  0  0  0  0  0  0  0
  -25.9733   11.0852  -22.2093 C   0  0  0  0  0  0  0  0  0  0  0  0
  -25.6578   11.8094  -23.4426 C   0  0  0  0  0  0  0  0  0  0  0  0
  -26.0053   11.4194  -24.7172 C   0  0  0  0  0  0  0  0  0  0  0  0
  -25.5177   12.3767  -25.5787 C   0  0  0  0  0  0  0  0  0  0  0  0
  -25.6452   12.3937  -27.0809 C   0  0  0  0  0  0  0  0  0  0  0  0
  -26.9743   12.6283  -27.3757 F   0  0  0  0  0  0  0  0  0  0  0  0
  -24.8929   13.4578  -27.5943 F   0  0  0  0  0  0  0  0  0  0  0  0
  -24.9076   13.2884  -24.8078 N   0  0  0  0  0  0  0  0  0  0  0  0
  -24.9704   12.9837  -23.5242 N   0  0  0  0  0  0  0  0  0  0  0  0
  -24.4373   13.7140  -22.4197 C   0  0  0  0  0  0  0  0  0  0  0  0
  -23.3573   13.2794  -21.6843 C   0  0  0  0  0  0  0  0  0  0  0  0
  -22.8625   14.0047  -20.6214 C   0  0  0  0  0  0  0  0  0  0  0  0
  -23.4432   15.1842  -20.2741 C   0  0  0  0  0  0  0  0  0  0  0  0
  -22.7900   16.0835  -18.9163 S   0  0  0  0  0  6  0  0  0  0  0  0
  -21.2457   16.6974  -19.4297 N   0  0  0  0  0  0  0  0  0  0  0  0
  -23.7017   17.1801  -18.4932 O   0  0  0  0  0  0  0  0  0  0  0  0
  -22.5113   15.1214  -17.7919 O   0  0  0  0  0  0  0  0  0  0  0  0
  -24.5261   15.6511  -20.9872 C   0  0  0  0  0  0  0  0  0  0  0  0
  -25.0136   14.9106  -22.0547 C   0  0  0  0  0  0  0  0  0  0  0  0
  -26.5355   11.7459  -21.1470 C   0  0  0  0  0  0  0  0  0  0  0  0
  -26.8076   11.0272  -20.0278 C   0  0  0  0  0  0  0  0  0  0  0  0
  -27.3681   11.6215  -18.9311 F   0  0  0  0  0  0  0  0  0  0  0  0
  1  2  1  0
  2  3  1  0
  3  4  2  0
  4  5  1  0
  5  6  2  0
  6  7  1  0
  7  8  2  0
  8  9  1  0
  9 10  1  0
 10 11  1  0
 10 12  1  0
  9 13  2  0
 13 14  1  0
 14 15  1  0
 15 16  2  0
 16 17  1  0
 17 18  2  0
 18 19  1  0
 19 20  1  0
 19 21  2  0
 19 22  2  0
 18 23  1  0
 23 24  2  0
  6 25  1  0
 25 26  2  0
 26 27  1  0
 26  3  1  0
 14  7  1  0
 24 15  1  0
M  END
$$$$
