
     RDKit          3D

 34 38  0  0  0  0  0  0  0  0999 V2000
   -9.9046   41.0070  -15.4652 C   0  0  0  0  0  0  0  0  0  0  0  0
  -10.1678   41.8733  -16.6250 N   0  0  0  0  0  0  0  0  0  0  0  0
  -11.4696   42.3318  -16.9201 C   0  0  0  0  0  0  0  0  0  0  0  0
  -12.4063   41.8520  -16.2023 O   0  0  0  0  0  0  0  0  0  0  0  0
  -11.7727   43.3019  -17.9807 C   0  0  0  0  0  0  0  0  0  0  0  0
  -10.7464   44.1175  -18.4672 C   0  0  0  0  0  0  0  0  0  0  0  0
  -11.0165   45.0181  -19.4484 C   0  0  0  0  0  0  0  0  0  0  0  0
  -12.3103   45.1442  -19.9832 C   0  0  0  0  0  0  0  0  0  0  0  0
  -13.3336   44.3623  -19.5293 C   0  0  0  0  0  0  0  0  0  0  0  0
  -14.6960   44.4335  -20.0318 C   0  0  0  0  0  0  0  0  0  0  0  0
  -15.2674   45.6544  -20.2785 C   0  0  0  0  0  0  0  0  0  0  0  0
  -16.5765   45.7253  -20.7626 C   0  0  0  0  0  0  0  0  0  0  0  0
  -17.2423   44.5415  -20.9731 C   0  0  0  0  0  0  0  0  0  0  0  0
  -18.5365   44.5363  -21.4429 C   0  0  0  0  0  0  0  0  0  0  0  0
  -19.2056   45.7466  -21.7594 N   0  0  0  0  0  0  0  0  0  0  0  0
  -20.6477   45.7756  -21.6553 C   0  0  0  0  0  0  0  0  0  0  0  0
  -21.3127   46.6576  -22.6801 C   0  0  0  0  0  0  0  0  0  0  0  0
  -20.6234   47.8143  -22.9405 O   0  0  0  0  0  0  0  0  0  0  0  0
  -19.5887   48.0752  -22.0423 C   0  0  0  0  0  0  0  0  0  0  0  0
  -18.5451   46.9570  -22.1810 C   0  0  2  0  0  0  0  0  0  0  0  0
  -18.2288   46.9113  -23.6823 C   0  0  0  0  0  0  0  0  0  0  0  0
  -19.1490   43.3295  -21.6242 N   0  0  0  0  0  0  0  0  0  0  0  0
  -18.5816   42.1521  -21.3791 C   0  0  0  0  0  0  0  0  0  0  0  0
  -19.3413   40.9545  -21.6140 N   0  0  0  0  0  0  0  0  0  0  0  0
  -20.7280   40.9833  -22.0098 C   0  0  0  0  0  0  0  0  0  0  0  0
  -20.9999   39.8008  -22.8860 C   0  0  0  0  0  0  0  0  0  0  0  0
  -20.7149   38.5837  -22.3340 O   0  0  0  0  0  0  0  0  0  0  0  0
  -19.7870   38.5792  -21.3296 C   0  0  0  0  0  0  0  0  0  0  0  0
  -18.7313   39.6467  -21.4585 C   0  0  2  0  0  0  0  0  0  0  0  0
  -17.9602   39.6801  -20.1496 C   0  0  0  0  0  0  0  0  0  0  0  0
  -17.3346   42.1321  -20.9268 N   0  0  0  0  0  0  0  0  0  0  0  0
  -16.6687   43.3005  -20.7244 C   0  0  0  0  0  0  0  0  0  0  0  0
  -15.4066   43.2871  -20.2592 N   0  0  0  0  0  0  0  0  0  0  0  0
  -13.0166   43.4473  -18.5189 C   0  0  0  0  0  0  0  0  0  0  0  0
  1  2  1  0
  2  3  1  0
  3  4  2  0
  3  5  1  0
  5  6  2  0
  6  7  1  0
  7  8  2  0
  8  9  1  0
  9 10  1  0
 10 11  2  0
 11 12  1  0
 12 13  2  0
 13 14  1  0
 14 15  1  0
 15 16  1  0
 16 17  1  0
 17 18  1  0
 18 19  1  0
 19 20  1  0
 20 21  1  6
 14 22  2  0
 22 23  1  0
 23 24  1  0
 24 25  1  0
 25 26  1  0
 26 27  1  0
 27 28  1  0
 28 29  1  0
 29 30  1  1
 23 31  2  0
 31 32  1  0
 32 33  2  0
  9 34  2  0
 34  5  1  0
 33 10  1  0
 32 13  1  0
 20 15  1  0
 29 24  1  0
M  END
$$$$
